336
cid:65, pot: -288.593434439712
C -1.736928 0.166259 3.838936
C -3.172595 -0.076313 3.845855
C -1.248770 1.458051 3.682771
C 0.123131 1.708257 3.713256
H -1.917674 2.294424 3.549304
C 1.004992 0.649131 3.891913
C 0.529794 -0.652826 4.050022
H 2.071450 0.811383 3.926403
C -0.839716 -0.886812 4.017428
C 1.454013 -1.754699 4.277619
H -1.238443 -1.881858 4.143143
C 0.629536 3.067894 3.589998
H 1.014262 -2.763531 4.240075
H -3.803326 0.775868 3.548592
H 1.719996 3.163411 3.471134
C -3.889116 -2.318798 -0.125999
C -4.230266 -2.714648 1.233012
C -3.132724 -3.164453 -0.928661
C -2.832132 -2.814903 -2.245157
H -2.774848 -4.112600 -0.557520
C -3.288095 -1.602655 -2.749099
C -4.048295 -0.743545 -1.955401
H -3.077557 -1.306735 -3.765372
C -4.340068 -1.105319 -0.645641
C -4.558361 0.507111 -2.499314
H -4.931199 -0.465056 -0.008858
C -2.074206 -3.721569 -3.095749
H -5.013852 1.195563 -1.770654
H -3.711403 -3.607445 1.615290
H -1.748117 -3.309802 -4.063445
C 3.551854 -2.241130 0.193425
C 4.133157 -2.021995 1.510242
C 3.867814 -1.388821 -0.857886
C 3.348922 -1.610302 -2.133525
H 4.530049 -0.548774 -0.714659
C 2.500124 -2.690058 -2.345633
C 2.173895 -3.554066 -1.300182
H 2.087674 -2.891655 -3.322339
C 2.698634 -3.320889 -0.034504
C 1.316615 -4.707467 -1.534866
H 2.470010 -3.975048 0.792989
C 3.714642 -0.739034 -3.241395
H 0.983845 -5.247502 -0.634962
H 4.668089 -1.068903 1.644045
H 3.146969 -0.885734 -4.173373
C -0.199066 4.111785 -0.830213
C -0.611665 4.812689 0.377531
C -1.147198 3.727763 -1.770901
C -0.761344 3.090587 -2.950252
H -2.196883 3.925806 -1.617233
C 0.585228 2.831302 -3.175298
C 1.548344 3.210714 -2.240167
H 0.915814 2.345630 -4.080649
C 1.149045 3.844874 -1.069748
C 2.961792 2.973702 -2.497591
H 1.870741 4.156335 -0.330237
C -1.753436 2.726384 -3.951906
H 3.640293 3.159408 -1.650460
H -1.696430 4.846562 0.563598
H -1.390936 2.093499 -4.776715
C -5.074264 -1.378333 4.212809
C -5.411270 -2.523245 3.236224
N -3.658563 -1.184496 4.198994
N -5.087788 -2.089944 1.913520
C -6.908537 -2.836757 3.299812
H -4.826479 -3.412510 3.534019
C -7.329710 -3.209561 4.715974
H -7.126304 -3.654010 2.608876
H -7.458792 -1.956928 2.961848
C -6.994517 -2.079508 5.683414
H -6.806385 -4.117803 5.023838
H -8.401662 -3.415903 4.737141
C -5.505216 -1.761660 5.631152
H -7.273416 -2.361583 6.700677
H -7.566312 -1.188828 5.412805
H -4.922966 -2.629818 5.944574
H -5.266846 -0.936768 6.305985
H -5.618360 -0.474408 3.883977
C 3.545617 -2.665686 4.768857
C 4.655511 -2.641047 3.698414
N 2.673329 -1.559301 4.530361
N 4.052371 -2.884368 2.426037
C 5.674338 -3.748515 3.980822
H 5.150261 -1.653723 3.738956
C 6.278301 -3.594649 5.371210
H 6.455527 -3.710125 3.218546
H 5.168493 -4.711657 3.893601
C 5.181779 -3.615938 6.430757
H 6.820665 -2.648092 5.429463
H 6.990866 -4.401883 5.552617
C 4.163697 -2.514761 6.161509
H 5.616297 -3.478600 7.422952
H 4.680686 -4.586487 6.414627
H 4.642275 -1.535709 6.220938
H 3.364753 -2.542909 6.905590
H 3.016357 -3.632941 4.693333
C 0.402834 5.390131 3.542071
C -0.224933 6.066817 2.306745
N -0.133361 4.069667 3.646224
N 0.221507 5.369394 1.142204
C 0.241172 7.522525 2.218539
H -1.324120 6.028378 2.415125
C -0.122189 8.290856 3.483204
H -0.219452 7.986738 1.343919
H 1.322469 7.529078 2.070682
C 0.495625 7.621339 4.706096
H -1.208814 8.316252 3.593698
H 0.231290 9.320598 3.400608
C 0.035191 6.172374 4.805868
H 0.210723 8.159569 5.612327
H 1.584599 7.652263 4.625022
H -1.047762 6.128631 4.934465
H 0.494950 5.683980 5.667847
H 1.499936 5.381231 3.409071
C -1.105360 -5.778102 -3.623289
C 0.175359 -6.226275 -2.890458
N -1.834836 -4.910739 -2.753125
N 1.002631 -5.077006 -2.698333
C 0.935022 -7.243146 -3.746661
H -0.120951 -6.687108 -1.930732
C 0.061015 -8.449176 -4.068139
H 1.832925 -7.554710 -3.208612
H 1.250716 -6.749724 -4.667547
C -1.207279 -8.007298 -4.790366
H -0.208871 -8.960192 -3.141099
H 0.620475 -9.152070 -4.688792
C -1.973690 -6.997582 -3.944912
H -1.842778 -8.871228 -4.994909
H -0.940114 -7.552398 -5.747070
H -2.287546 -7.453902 -3.004545
H -2.870331 -6.661867 -4.470300
H -0.806882 -5.270010 -4.558179
C -5.034445 1.996591 -4.231905
C -3.884521 2.775885 -4.901831
N -4.505433 0.767139 -3.731557
N -2.943437 3.137120 -3.889240
C -4.429130 4.053328 -5.546895
H -3.432522 2.126423 -5.673336
C -5.513859 3.731367 -6.567364
H -3.603152 4.586478 -6.022583
H -4.830477 4.692414 -4.758472
C -6.650356 2.958332 -5.906891
H -5.087548 3.130815 -7.374209
H -5.893793 4.657800 -7.002783
C -6.120041 1.682325 -5.264914
H -7.412599 2.706694 -6.647025
H -7.117613 3.583149 -5.142191
H -5.691647 1.027159 -6.025430
H -6.928280 1.138735 -4.771006
H -5.451888 2.625644 -3.424868
C 4.988101 0.931748 -4.257860
C 4.776594 2.403841 -3.849807
N 4.643113 0.107675 -3.142761
N 3.379530 2.607323 -3.628948
C 5.236823 3.327771 -4.980671
H 5.371382 2.596990 -2.938604
C 6.699726 3.080780 -5.327747
H 5.087515 4.364223 -4.670501
H 4.606184 3.144794 -5.852359
C 6.911051 1.624859 -5.728823
H 7.323305 3.312385 -4.461041
H 6.999406 3.741798 -6.143467
C 6.459800 0.696017 -4.608363
H 7.965011 1.446043 -5.950815
H 6.336013 1.410524 -6.632643
H 7.058449 0.867434 -3.712046
H 6.588228 -0.347866 -4.902569
H 4.352403 0.724005 -5.137639
C -1.738864 0.084796 3.744033
C -3.168899 -0.189076 3.738720
C -1.278327 1.389690 3.615364
C 0.087610 1.669012 3.657820
H -1.964711 2.213679 3.494494
C 0.991553 0.626146 3.820675
C 0.544185 -0.688718 3.951118
H 2.054029 0.810849 3.863856
C -0.819706 -0.951767 3.906841
C 1.491172 -1.774440 4.162246
H -1.197183 -1.957589 4.011250
C 0.564749 3.041542 3.563506
H 1.073775 -2.791678 4.102964
H -3.816678 0.654714 3.454636
H 1.653417 3.163088 3.452309
C -3.817024 -2.369161 -0.279390
C -4.155987 -2.798602 1.069899
C -3.038449 -3.182385 -1.094247
C -2.739217 -2.800817 -2.402187
H -2.661712 -4.129510 -0.739673
C -3.219150 -1.589286 -2.885009
C -4.001785 -0.762535 -2.078844
H -3.010232 -1.269196 -3.894269
C -4.291891 -1.155878 -0.777888
C -4.536445 0.487093 -2.601240
H -4.899950 -0.541144 -0.132012
C -1.957543 -3.674070 -3.266141
H -5.010398 1.151209 -1.861762
H -3.619569 -3.687114 1.437558
H -1.635872 -3.236636 -4.223998
C 3.618838 -2.135724 0.080533
C 4.188847 -1.929586 1.404347
C 3.921160 -1.256421 -0.952511
C 3.413400 -1.464359 -2.234893
H 4.564160 -0.405140 -0.789577
C 2.589450 -2.558003 -2.472182
C 2.277155 -3.449077 -1.445380
H 2.186230 -2.749547 -3.454786
C 2.790552 -3.229116 -0.172662
C 1.446451 -4.616056 -1.706762
H 2.572298 -3.904069 0.640797
C 3.765321 -0.563962 -3.323772
H 1.121233 -5.180575 -0.819260
H 4.702158 -0.967770 1.559339
H 3.205500 -0.704838 -4.261386
C -0.265141 4.152775 -0.839953
C -0.698798 4.820929 0.378912
C -1.200099 3.766467 -1.792845
C -0.794708 3.160922 -2.982254
H -2.254589 3.938637 -1.640922
C 0.558286 2.935396 -3.205254
C 1.508342 3.317456 -2.257842
H 0.903778 2.474733 -4.117977
C 1.089626 3.919934 -1.077555
C 2.927866 3.116383 -2.512385
H 1.800759 4.232642 -0.328372
C -1.773752 2.794675 -3.995939
H 3.598040 3.300238 -1.658262
H -1.784929 4.827511 0.559844
H -1.393522 2.185923 -4.830885
C -5.043385 -1.539066 4.070488
C -5.350555 -2.671933 3.070222
N -3.632216 -1.314281 4.067850
N -5.030244 -2.206068 1.757836
C -6.840894 -3.019097 3.119896
H -4.747895 -3.553869 3.353786
C -7.260642 -3.428401 4.526329
H -7.037395 -3.827314 2.412161
H -7.408622 -2.145068 2.796078
C -6.954919 -2.310326 5.517129
H -6.719071 -4.330887 4.819307
H -8.327918 -3.658448 4.537892
C -5.472692 -1.959164 5.478857
H -7.232491 -2.618146 6.527269
H -7.544748 -1.427216 5.260824
H -4.873116 -2.820354 5.778563
H -5.255685 -1.142562 6.170766
H -5.605530 -0.641033 3.756302
C 3.599802 -2.649002 4.646847
C 4.714049 -2.579403 3.582903
N 2.704688 -1.557465 4.425131
N 4.122520 -2.811125 2.302918
C 5.755476 -3.669763 3.849198
H 5.186885 -1.582555 3.645051
C 6.349215 -3.529730 5.245452
H 6.539314 -3.599500 3.091923
H 5.271250 -4.641728 3.740733
C 5.248316 -3.595521 6.298586
H 6.870456 -2.572940 5.324829
H 7.078376 -4.324694 5.414976
C 4.207705 -2.511739 6.045319
H 5.674933 -3.467993 7.295535
H 4.768651 -4.576272 6.261139
H 4.664463 -1.523830 6.126153
H 3.405989 -2.571655 6.784508
H 3.092198 -3.625870 4.549857
C 0.287546 5.358826 3.559238
C -0.348906 6.045479 2.333971
N -0.220140 4.025192 3.635081
N 0.118300 5.380689 1.158514
C 0.085671 7.512460 2.276346
H -1.447499 5.981032 2.435824
C -0.300509 8.247952 3.553643
H -0.380769 7.983413 1.408450
H 1.167271 7.545420 2.134244
C 0.325891 7.568484 4.766645
H -1.387952 8.247532 3.658926
H 0.030759 9.286578 3.492787
C -0.103219 6.108149 4.835983
H 0.024910 8.082625 5.681573
H 1.414309 7.624679 4.691857
H -1.185561 6.038363 4.957982
H 0.362941 5.613177 5.690773
H 1.385205 5.376313 3.431852
C -0.941419 -5.698432 -3.828159
C 0.345244 -6.132783 -3.097447
N -1.693886 -4.864252 -2.945252
N 1.146245 -4.969716 -2.878833
C 1.131086 -7.116042 -3.969041
H 0.054453 -6.618450 -2.148298
C 0.285235 -8.334304 -4.318401
H 2.032986 -7.418341 -3.432456
H 1.440355 -6.598063 -4.878550
C -0.988920 -7.906244 -5.038616
H 0.022114 -8.869002 -3.402785
H 0.862922 -9.012700 -4.949547
C -1.781309 -6.930050 -4.177780
H -1.604382 -8.779672 -5.263058
H -0.727155 -7.427148 -5.984915
H -2.089647 -7.411338 -3.248088
H -2.682528 -6.603827 -4.701361
H -0.649615 -5.165890 -4.751481
C -5.036624 1.999223 -4.307169
C -3.900798 2.816200 -4.955923
N -4.483265 0.772120 -3.827960
N -2.972740 3.178136 -3.931600
C -4.470095 4.093738 -5.579100
H -3.430982 2.191872 -5.737420
C -5.542583 3.768167 -6.611231
H -3.653688 4.653916 -6.040035
H -4.889127 4.708541 -4.780524
C -6.665075 2.957908 -5.971780
H -5.099346 3.192844 -7.427304
H -5.940580 4.694410 -7.030695
C -6.110083 1.681540 -5.351780
H -7.418054 2.704066 -6.720649
H -7.149573 3.557392 -5.197664
H -5.663800 1.050656 -6.122568
H -6.908622 1.110892 -4.872688
H -5.471615 2.603244 -3.490395
C 5.006825 1.153561 -4.301110
C 4.761201 2.612446 -3.865818
N 4.674561 0.300668 -3.203922
N 3.358973 2.781163 -3.648427
C 5.206572 3.568049 -4.976212
H 5.347219 2.800801 -2.947983
C 6.676182 3.359663 -5.320330
H 5.033129 4.594699 -4.646869
H 4.584295 3.388275 -5.854534
C 6.921229 1.916747 -5.748264
H 7.290357 3.587968 -4.446052
H 6.965271 4.042853 -6.121543
C 6.485002 0.956754 -4.648371
H 7.979909 1.765315 -5.968112
H 6.355389 1.707567 -6.659069
H 7.075421 1.123733 -3.745718
H 6.637650 -0.078142 -4.961974
H 4.380075 0.949139 -5.188019
