336
cid:69, pot: -292.2637236522647
C -2.109660 0.765331 3.682384
C -3.564767 0.719739 3.657640
C -1.444825 1.957276 3.420324
C -0.052738 2.022753 3.479073
H -1.988877 2.858002 3.180605
C 0.670437 0.878439 3.793565
C 0.016990 -0.325069 4.059044
H 1.747886 0.898647 3.853100
C -1.370447 -0.375093 3.996713
C 0.775016 -1.512242 4.427990
H -1.905178 -1.289628 4.203094
C 0.638674 3.282464 3.243850
H 0.201826 -2.451428 4.471768
H -4.064778 1.614296 3.254954
H 1.734525 3.218100 3.158278
C -4.483851 -1.797644 -0.102126
C -4.909840 -2.004091 1.274793
C -3.831185 -2.814284 -0.789146
C -3.452778 -2.643714 -2.120843
H -3.616382 -3.759295 -0.314151
C -3.725100 -1.438678 -2.757343
C -4.379464 -0.409173 -2.080692
H -3.450695 -1.278406 -3.788712
C -4.750652 -0.593661 -0.754168
C -4.699086 0.836933 -2.762757
H -5.263792 0.181488 -0.205807
C -2.805789 -3.725566 -2.849544
H -5.073573 1.650690 -2.122490
H -4.528296 -2.915031 1.761674
H -2.402247 -3.461688 -3.839415
C 2.886895 -2.688013 0.494071
C 3.459903 -2.416423 1.804734
C 3.343046 -1.997007 -0.622153
C 2.830490 -2.275112 -1.889237
H 4.110710 -1.243353 -0.535873
C 1.846850 -3.246990 -2.027901
C 1.379069 -3.948744 -0.916764
H 1.434999 -3.489450 -2.995528
C 1.899270 -3.660906 0.339502
C 0.377468 -4.994369 -1.071051
H 1.562399 -4.191036 1.217237
C 3.339924 -1.577842 -3.061638
H -0.048638 -5.390665 -0.136395
H 4.117288 -1.535196 1.865763
H 2.780807 -1.740801 -3.996085
C 0.071528 3.974103 -1.285448
C -0.270680 4.843000 -0.168282
C -0.896726 3.627422 -2.220124
C -0.572946 2.827816 -3.316273
H -1.912710 3.979212 -2.126895
C 0.730370 2.368540 -3.463125
C 1.712965 2.708101 -2.532952
H 1.013443 1.753511 -4.303620
C 1.375679 3.505632 -1.445910
C 3.086367 2.258513 -2.711598
H 2.114741 3.790780 -0.712964
C -1.580488 2.500387 -4.315197
H 3.762696 2.436425 -1.861064
H -1.344775 5.040963 -0.028228
H -1.288052 1.744134 -5.060059
C -5.635896 -0.271054 4.075987
C -6.102724 -1.453486 3.203037
N -4.207087 -0.271519 4.097839
N -5.689984 -1.204064 1.857908
C -7.629988 -1.554981 3.239177
H -5.653314 -2.378373 3.608089
C -8.133467 -1.722163 4.667618
H -7.940801 -2.401451 2.623060
H -8.045499 -0.648109 2.796420
C -7.670249 -0.555063 5.532846
H -7.747780 -2.656480 5.082165
H -9.223800 -1.779444 4.667506
C -6.150559 -0.447074 5.507243
H -8.010466 -0.692406 6.561226
H -8.107272 0.372234 5.155193
H -5.701153 -1.349229 5.925688
H -5.817896 0.402525 6.107395
H -6.042223 0.659669 3.640207
C 2.708671 -2.641279 5.085466
C 3.837665 -2.874701 4.061160
N 2.002957 -1.457739 4.707239
N 3.238604 -3.162688 2.796203
C 4.687241 -4.074533 4.488797
H 4.462285 -1.963800 4.024566
C 5.271888 -3.862857 5.879842
H 5.484987 -4.218976 3.756997
H 4.056120 -4.964846 4.476190
C 4.156865 -3.629033 6.893502
H 5.937609 -2.996738 5.866655
H 5.861986 -4.735858 6.166086
C 3.306835 -2.434168 6.479591
H 4.581349 -3.451308 7.883625
H 3.527664 -4.520070 6.952499
H 3.913834 -1.527331 6.461965
H 2.493368 -2.279091 7.191619
H 2.053508 -3.531313 5.083991
C 0.734624 5.597142 2.961829
C 0.236731 6.223100 1.643382
N 0.019575 4.378107 3.173101
N 0.611853 5.357474 0.570144
C 0.900574 7.586481 1.432133
H -0.859654 6.343835 1.712645
C 0.614977 8.521008 2.601251
H 0.530014 8.017160 0.499488
H 1.975842 7.432711 1.326020
C 1.104309 7.902191 3.906253
H -0.460248 8.703193 2.666898
H 1.108600 9.480196 2.432642
C 0.446720 6.545869 4.128567
H 0.873674 8.562983 4.744273
H 2.188870 7.778191 3.864484
H -0.634821 6.661247 4.219076
H 0.813414 6.090186 5.050957
H 1.823050 5.427525 2.872600
C -2.116048 -5.936412 -3.137126
C -0.927707 -6.475814 -2.315523
N -2.740755 -4.895137 -2.384047
N 0.044670 -5.434552 -2.204314
C -0.294009 -7.667101 -3.039029
H -1.308308 -6.792865 -1.327665
C -1.317252 -8.771166 -3.275164
H 0.538890 -8.040200 -2.439133
H 0.109301 -7.316587 -3.990680
C -2.494419 -8.238562 -4.085132
H -1.677775 -9.144550 -2.313922
H -0.844483 -9.602161 -3.802614
C -3.135515 -7.054512 -3.371879
H -3.237369 -9.025573 -4.229043
H -2.143568 -7.923138 -5.070527
H -3.532389 -7.366724 -2.404389
H -3.964159 -6.656492 -3.961482
H -1.727421 -5.570547 -4.104791
C -4.922692 2.193242 -4.648891
C -3.660269 2.738980 -5.346661
N -4.580313 0.961072 -4.011484
N -2.703914 3.071444 -4.338532
C -4.007900 4.005863 -6.133253
H -3.282815 1.959776 -6.033459
C -5.100897 3.730605 -7.158555
H -3.104909 4.372192 -6.626385
H -4.337045 4.769754 -5.426673
C -6.348929 3.188274 -6.470278
H -4.741277 2.999477 -7.886241
H -5.338930 4.650649 -7.696213
C -6.015178 1.924413 -5.687444
H -7.119901 2.967478 -7.211214
H -6.744711 3.944544 -5.788439
H -5.662155 1.143873 -6.363669
H -6.902492 1.547261 -5.174495
H -5.269618 2.951294 -3.923442
C 4.855835 -0.205103 -4.185922
C 4.838632 1.315803 -3.931271
N 4.373237 -0.857903 -3.010120
N 3.477752 1.726429 -3.785102
C 5.449459 2.049957 -5.128024
H 5.431499 1.518799 -3.020957
C 6.872688 1.574791 -5.392960
H 5.436390 3.123152 -4.925999
H 4.821509 1.865815 -6.001405
C 6.891759 0.070558 -5.642251
H 7.500456 1.807310 -4.529529
H 7.280567 2.103333 -6.256921
C 6.289405 -0.670700 -4.455022
H 7.916318 -0.269789 -5.805133
H 6.315352 -0.155223 -6.542405
H 6.883478 -0.491156 -3.557253
H 6.280381 -1.746795 -4.641251
H 4.219671 -0.413800 -5.065139
C -4.049803 1.703221 1.042094
C -4.933891 0.709449 1.634410
C -4.100073 1.955573 -0.323625
C -3.285656 2.932308 -0.896618
H -4.777265 1.413873 -0.966013
C -2.410721 3.649308 -0.089396
C -2.349118 3.407082 1.283029
H -1.772544 4.415696 -0.501965
C -3.166562 2.430793 1.839806
C -1.460819 4.187764 2.132506
H -3.146603 2.224597 2.899123
C -3.369804 3.222497 -2.321084
H -1.359471 3.835115 3.170713
H -5.486831 0.076355 0.923247
H -2.593020 3.893528 -2.719407
C -2.054766 -2.699266 2.821570
C -3.004148 -1.963225 3.644257
C -0.718527 -2.772651 3.196515
C 0.193558 -3.507092 2.438530
H -0.361268 -2.277187 4.086222
C -0.243333 -4.160740 1.292612
C -1.581444 -4.096154 0.903736
H 0.436553 -4.742020 0.688809
C -2.478739 -3.360761 1.668866
C -2.043656 -4.815319 -0.275031
H -3.521390 -3.297021 1.397562
C 1.584026 -3.615285 2.856732
H -3.071197 -4.590326 -0.600683
H -2.565814 -1.347113 4.444656
H 2.268022 -4.079113 2.129185
C 2.738969 2.682853 0.943012
C 2.211279 4.039834 0.948724
C 3.305857 2.160940 -0.213706
C 3.850355 0.876799 -0.221944
H 3.350064 2.740323 -1.123121
C 3.812930 0.113631 0.938843
C 3.247244 0.623895 2.107386
H 4.231506 -0.880772 0.966104
C 2.708670 1.905169 2.100579
C 3.245842 -0.163017 3.332538
H 2.269876 2.330156 2.990387
C 4.479807 0.348975 -1.424198
H 2.648199 0.244527 4.162500
H 2.133524 4.526673 -0.035930
H 4.744627 -0.719415 -1.396315
C -1.500725 -0.518063 -4.277806
C -2.809105 0.082477 -4.496010
C -1.399219 -1.861054 -3.935089
C -0.150650 -2.458290 -3.761588
H -2.279662 -2.472539 -3.810271
C 0.998599 -1.694171 -3.924472
C 0.912431 -0.344861 -4.268136
H 1.978957 -2.128716 -3.803201
C -0.338388 0.236523 -4.437919
C 2.119148 0.442691 -4.477577
H -0.437724 1.276131 -4.710169
C -0.047364 -3.875267 -3.442635
H 1.968787 1.527392 -4.592803
H -3.672894 -0.533394 -4.200999
H 0.957954 -4.232768 -3.170938
C -5.968878 -0.369377 3.426387
C -5.149257 -1.331309 4.310231
N -5.075761 0.604563 2.882588
N -4.248850 -2.052610 3.467035
C -6.084760 -2.328304 4.999387
H -4.613836 -0.730478 5.067690
C -7.133135 -1.605947 5.836575
H -5.488245 -2.994729 5.626096
H -6.567692 -2.934476 4.230992
C -7.942596 -0.652203 4.964573
H -6.638613 -1.040770 6.630073
H -7.794082 -2.336931 6.306624
C -7.021342 0.347569 4.276445
H -8.674398 -0.117247 5.573237
H -8.487076 -1.224407 4.209856
H -6.505516 0.958447 5.019220
H -7.596525 1.016808 3.633052
H -6.462405 -0.964190 2.636570
C -0.022899 5.970695 2.579233
C 1.399678 5.967080 1.983727
N -0.870806 5.218149 1.709422
N 1.893317 4.626520 2.018134
C 2.319062 6.852652 2.829223
H 1.341567 6.359501 0.952334
C 1.783993 8.277044 2.909646
H 3.318126 6.844179 2.388085
H 2.390468 6.419348 3.828275
C 0.376195 8.282086 3.495714
H 1.761852 8.714379 1.908802
H 2.449398 8.884109 3.526972
C -0.548713 7.406380 2.659481
H -0.013489 9.301577 3.526652
H 0.408257 7.903239 4.519823
H -0.626758 7.801095 1.644968
H -1.552023 7.389662 3.090559
H 0.026793 5.529522 3.591279
C -4.354457 3.079893 -4.432194
C -4.242611 1.768411 -5.235530
N -4.292825 2.756148 -3.041703
N -2.940166 1.222514 -5.017450
C -4.411970 2.058018 -6.729403
H -5.039862 1.085035 -4.890825
C -5.748355 2.735095 -7.007278
H -4.338164 1.117965 -7.280276
H -3.589770 2.699811 -7.050688
C -5.861715 4.030923 -6.211409
H -6.562173 2.063293 -6.724435
H -5.839221 2.941816 -8.075545
C -5.698392 3.753720 -4.722111
H -6.831325 4.498873 -6.392802
H -5.085950 4.726748 -6.539158
H -6.495557 3.096021 -4.371145
H -5.755733 4.683543 -4.151927
H -3.525337 3.743068 -4.739028
C 3.337964 -3.368597 4.376357
C 3.902524 -1.962932 4.665281
N 1.968844 -3.227425 3.992733
N 3.912279 -1.227563 3.440023
C 5.338589 -2.076230 5.183842
H 3.261898 -1.485241 5.428644
C 5.400791 -2.938513 6.438543
H 5.717957 -1.073177 5.390476
H 5.955391 -2.511739 4.395780
C 4.840256 -4.328099 6.155226
H 4.817507 -2.467194 7.232977
H 6.435053 -3.013871 6.780466
C 3.409021 -4.227265 5.642128
H 4.861976 -4.933642 7.063460
H 5.461392 -4.823837 5.405579
H 2.767306 -3.775664 6.400611
H 3.013559 -5.219887 5.416151
H 3.946617 -3.825820 3.575256
C -1.814276 -6.363462 -2.006374
C -0.899952 -6.034548 -3.203980
N -1.319308 -5.662262 -0.864028
N -1.043571 -4.645029 -3.504207
C -1.330979 -6.850030 -4.426173
H 0.137981 -6.291988 -2.925286
C -1.294015 -8.343777 -4.128057
H -0.667922 -6.610312 -5.260243
H -2.341714 -6.545474 -4.703576
C -2.195536 -8.670117 -2.942238
H -0.269033 -8.643500 -3.897817
H -1.617114 -8.901400 -5.009499
C -1.772697 -7.866756 -1.718575
H -2.145375 -9.736987 -2.715319
H -3.230274 -8.428682 -3.196013
H -0.755524 -8.132763 -1.425493
H -2.431518 -8.081242 -0.874311
H -2.843917 -6.056923 -2.265317
C 5.367414 0.532150 -3.574781
C 4.418109 0.711148 -4.776837
N 4.729794 1.080576 -2.419655
N 3.258197 -0.092169 -4.550448
C 5.106506 0.233230 -6.058325
H 4.167612 1.784265 -4.860436
C 6.407507 0.990105 -6.295246
H 4.423307 0.375485 -6.898302
H 5.303848 -0.835981 -5.964296
C 7.346209 0.816401 -5.106192
H 6.190502 2.051881 -6.433943
H 6.884250 0.622918 -7.206374
C 6.672327 1.292895 -3.825379
H 8.265910 1.381956 -5.268570
H 7.613218 -0.238193 -5.006023
H 6.441930 2.357554 -3.893773
H 7.334004 1.147569 -2.968804
H 5.575663 -0.546911 -3.458724
