372
cid:69, pot: -240.11915058403278
Pd 2.648281 5.816610 2.909119
Pd -2.741005 -5.475338 -3.109678
C 4.173466 -3.598104 -0.260529
C 3.699104 -4.596980 -0.751474
C 3.096233 -5.755750 -1.275182
C 3.716032 -6.990036 -1.181992
C 3.087843 -8.149595 -1.650333
C 1.829937 -8.101301 -2.194734
C 1.165422 -6.861951 -2.312213
C -0.144434 -6.749979 -2.816616
N -0.765763 -5.594979 -2.927474
C -0.128961 -4.445256 -2.589252
C 1.131015 -4.446761 -2.063520
C 1.808850 -5.668495 -1.876941
H 4.696514 -7.058119 -0.735513
H 3.603786 -9.093571 -1.565215
H 1.341459 -9.000493 -2.534651
H -0.690044 -7.637835 -3.126360
H -0.689825 -3.529086 -2.763963
H 1.619334 -3.528022 -1.781298
C 4.704552 -2.429122 0.316825
C 5.965205 -2.448237 0.924711
C 6.478049 -1.302523 1.491846
C 5.740238 -0.112603 1.466706
C 4.477613 -0.095589 0.862897
C 3.966537 -1.239430 0.292849
H 6.535088 -3.365255 0.942640
H 7.452429 -1.315290 1.957014
H 3.916771 0.824759 0.837099
H 2.997128 -1.227317 -0.179507
C 6.284906 1.061629 2.019555
C 6.762053 2.079467 2.468491
C 7.400820 3.248124 2.920107
C 8.766194 3.240671 3.147191
C 9.441269 4.405542 3.523800
C 8.772746 5.596961 3.661438
C 7.383222 5.650608 3.451561
C 6.636718 6.845820 3.560764
C 5.286648 6.824080 3.364614
N 4.617062 5.676376 3.093722
C 5.281053 4.545259 2.959572
C 6.674924 4.464041 3.102362
H 9.318550 2.322285 3.018889
H 10.506458 4.362133 3.692579
H 9.300666 6.498666 3.929389
H 7.144804 7.767146 3.796655
H 4.685958 7.730284 3.418432
H 4.704059 3.649911 2.738727
C -0.721472 -3.594450 4.095293
C -1.140748 -4.596543 3.562730
C -1.577829 -5.758150 2.897937
C -1.544890 -6.994589 3.518693
C -1.921231 -8.155691 2.833406
C -2.314634 -8.105359 1.520802
C -2.371044 -6.862602 0.854273
C -2.725970 -6.747034 -0.503293
N -2.785085 -5.588381 -1.125495
C -2.539605 -4.439517 -0.446761
C -2.157504 -4.443838 0.864157
C -2.027978 -5.668518 1.550173
H -1.215195 -7.063989 4.544206
H -1.884971 -9.101937 3.350811
H -2.583101 -9.005264 0.990857
H -2.958159 -7.635417 -1.085891
H -2.670619 -3.520475 -1.013772
H -1.950058 -3.523923 1.386846
C -0.237635 -2.412586 4.688868
C -0.187453 -2.284019 6.081408
C 0.266040 -1.115201 6.652016
C 0.684751 -0.051197 5.843126
C 0.654034 -0.189212 4.450723
C 0.194762 -1.354574 3.880034
H -0.514801 -3.102219 6.705481
H 0.295843 -1.011114 7.726387
H 0.989425 0.626098 3.830366
H 0.165914 -1.464282 2.807583
C 1.097826 1.154512 6.440496
C 1.410157 2.201375 6.961961
C 1.690220 3.401547 7.639176
C 1.611134 3.442605 9.020727
C 1.817373 4.635052 9.720628
C 2.086154 5.806755 9.057085
C 2.182484 5.812686 7.654123
C 2.437757 6.986111 6.908807
C 2.533798 6.920148 5.549425
N 2.419190 5.748960 4.876000
C 2.160303 4.635941 5.533533
C 2.008118 4.598231 6.928231
H 1.377508 2.539660 9.563799
H 1.749278 4.628435 10.797737
H 2.223970 6.729166 9.598968
H 2.551028 7.926175 7.424638
H 2.707026 7.807909 4.943847
H 2.073097 3.720552 4.951899
C -4.191586 4.048277 -0.192442
C -3.705689 5.048827 0.283502
C -3.087883 6.206081 0.794493
C -3.661996 7.455096 0.634820
C -3.014308 8.609793 1.089199
C -1.782682 8.539924 1.688037
C -1.167298 7.284180 1.878504
C 0.112796 7.146959 2.448335
N 0.686226 5.976366 2.632477
C 0.024524 4.837217 2.307749
C -1.208254 4.861414 1.721126
C -1.831716 6.097621 1.455964
H -4.619800 7.539213 0.144261
H -3.493767 9.566387 0.949429
H -1.278129 9.434306 2.017180
H 0.674757 8.027615 2.750296
H 0.538542 3.909323 2.548579
H -1.715846 3.948519 1.453826
C -4.732412 2.867832 -0.737777
C -3.893870 1.780641 -1.012224
C -4.415721 0.616705 -1.529642
C -5.788997 0.509567 -1.777643
C -6.625180 1.602532 -1.517015
C -6.102375 2.769815 -1.005447
H -2.836961 1.866643 -0.816215
H -3.772151 -0.221052 -1.743776
H -7.683637 1.522285 -1.714661
H -6.748407 3.610433 -0.799962
C -6.345534 -0.692772 -2.252797
C -6.839234 -1.735282 -2.620007
C -7.495852 -2.926610 -2.976812
C -8.872917 -2.933505 -3.118476
C -9.563264 -4.114594 -3.405997
C -8.897444 -5.308306 -3.537816
C -7.497740 -5.349273 -3.408627
C -6.753484 -6.546183 -3.514101
C -5.394853 -6.514312 -3.393289
N -4.716736 -5.356356 -3.199873
C -5.376558 -4.221670 -3.075541
C -6.776151 -4.147618 -3.149060
H -9.421486 -2.012153 -2.995842
H -10.636935 -4.081304 -3.511055
H -9.435461 -6.221258 -3.738850
H -7.270116 -7.476912 -3.686425
H -4.793770 -7.420294 -3.446815
H -4.791613 -3.317992 -2.917942
C 0.889841 3.818344 -4.326669
C 1.325856 4.818462 -3.803668
C 1.777648 5.980922 -3.151600
C 1.817930 7.199742 -3.806735
C 2.210901 8.364844 -3.138432
C 2.545828 8.338286 -1.808746
C 2.522229 7.115050 -1.105584
C 2.807606 7.027101 0.270423
N 2.786838 5.887065 0.927936
C 2.524110 4.728494 0.271849
C 2.206651 4.707894 -1.055826
C 2.163568 5.914864 -1.782814
H 1.535768 7.251410 -4.847367
H 2.234719 9.296215 -3.683024
H 2.827348 9.242396 -1.292990
H 3.049709 7.922181 0.838063
H 2.582447 3.824162 0.874493
H 1.981686 3.782953 -1.561843
C 0.372230 2.649168 -4.915657
C 0.248890 1.479014 -4.156636
C -0.264157 0.335367 -4.725181
C -0.662365 0.332972 -6.067009
C -0.540126 1.503308 -6.826093
C -0.030118 2.648913 -6.256368
H 0.563294 1.481609 -3.125009
H -0.350708 -0.570339 -4.146816
H -0.846531 1.500971 -7.861538
H 0.065606 3.550832 -6.842225
C -1.154105 -0.842356 -6.665528
C -1.549768 -1.861691 -7.184694
C -1.926600 -3.036077 -7.860443
C -1.934252 -3.059757 -9.244344
C -2.231405 -4.233024 -9.944117
C -2.506102 -5.402496 -9.279090
C -2.520312 -5.423834 -7.873053
C -2.779306 -6.595728 -7.126511
C -2.798785 -6.542558 -5.763275
N -2.605865 -5.383979 -5.085274
C -2.337092 -4.274599 -5.745054
C -2.255044 -4.227305 -7.145364
H -1.694767 -2.159853 -9.789909
H -2.228064 -4.214042 -11.023340
H -2.711973 -6.311345 -9.822411
H -2.957096 -7.524567 -7.644587
H -2.972056 -7.430773 -5.158420
H -2.185705 -3.369567 -5.160704
Pd 1.620197 5.916167 3.752078
Pd -1.065386 -5.706804 -3.352278
C -1.584247 -3.605003 4.048056
C -1.854088 -4.608570 3.428561
C -2.207176 -5.737057 2.665421
C -2.992054 -6.745050 3.198577
C -3.391043 -7.836914 2.419262
C -3.035750 -7.929521 1.097830
C -2.232388 -6.925139 0.517163
C -1.873195 -6.935703 -0.844301
N -1.123649 -6.000124 -1.387656
C -0.628114 -4.995654 -0.621355
C -0.939819 -4.877881 0.702638
C -1.785369 -5.828996 1.308732
H -3.305130 -6.683428 4.229821
H -3.998732 -8.606082 2.870494
H -3.363457 -8.761977 0.495907
H -2.222181 -7.732193 -1.496829
H 0.028934 -4.295166 -1.133175
H -0.554902 -4.064831 1.296644
C -1.272556 -2.425040 4.749832
C -1.659358 -2.271771 6.086273
C -1.355525 -1.113394 6.766697
C -0.660804 -0.080720 6.124919
C -0.278732 -0.232834 4.787035
C -0.578924 -1.391835 4.108008
H -2.193534 -3.068710 6.581880
H -1.649524 -0.996168 7.799069
H 0.264356 0.560517 4.299296
H -0.279298 -1.514676 3.079336
C -0.325632 1.086481 6.836541
C -0.010975 2.079284 7.453532
C 0.407559 3.166491 8.241239
C 0.334527 3.083430 9.620947
C 0.812318 4.116907 10.432172
C 1.386019 5.237827 9.884651
C 1.472205 5.371173 8.487342
C 2.064317 6.490090 7.858778
C 2.096363 6.566435 6.496872
N 1.546793 5.609172 5.709185
C 1.007156 4.538348 6.257300
C 0.956903 4.342377 7.646161
H -0.087386 2.200259 10.075922
H 0.738690 4.017664 11.504430
H 1.774889 6.022800 10.514140
H 2.488726 7.274262 8.465083
H 2.565155 7.402866 5.981550
H 0.581496 3.794312 5.587469
C -5.384272 -0.216457 -0.076436
C -5.619115 -1.256261 -0.648604
C -5.850286 -2.497709 -1.271208
C -7.096447 -3.098344 -1.231907
C -7.306379 -4.361216 -1.797936
C -6.279051 -5.049551 -2.390558
C -4.995123 -4.467865 -2.459821
C -3.889345 -5.138130 -3.016878
N -2.692111 -4.595309 -3.088005
C -2.495031 -3.325375 -2.652698
C -3.493558 -2.600252 -2.068054
C -4.775763 -3.167538 -1.922386
H -7.915745 -2.587590 -0.749121
H -8.292286 -4.797075 -1.750193
H -6.440871 -6.031251 -2.806221
H -3.999794 -6.148183 -3.404354
H -1.494662 -2.925787 -2.803627
H -3.318638 -1.597627 -1.712109
C -5.081115 0.990715 0.582356
C -6.088059 1.920980 0.863148
C -5.777380 3.108927 1.487467
C -4.454191 3.390537 1.849931
C -3.451626 2.449862 1.587600
C -3.760557 1.265577 0.957883
H -7.107648 1.706539 0.579473
H -6.551972 3.831879 1.695691
H -2.436037 2.663132 1.879630
H -2.990812 0.539203 0.750484
C -4.144959 4.629822 2.441474
C -3.882408 5.714763 2.909917
C -3.649744 7.018477 3.382799
C -4.712382 7.893837 3.528093
C -4.508244 9.216752 3.931351
C -3.244365 9.693643 4.177407
C -2.134525 8.839514 4.049180
C -0.806577 9.270699 4.269053
C 0.224680 8.386560 4.142148
N 0.020159 7.081851 3.834866
C -1.202029 6.645779 3.601958
C -2.329341 7.478763 3.671532
H -5.713388 7.549539 3.317427
H -5.361030 9.869929 4.035410
H -3.088475 10.720654 4.468051
H -0.621452 10.299672 4.532663
H 1.260352 8.690766 4.282232
H -1.318325 5.592491 3.355361
C 2.409930 3.736232 -3.606901
C 2.693425 4.730339 -2.978298
C 3.056817 5.847579 -2.202614
C 3.906354 6.820055 -2.700280
C 4.314875 7.896639 -1.904359
C 3.901561 8.009244 -0.601706
C 3.026972 7.043490 -0.059051
C 2.598658 7.078334 1.281694
N 1.778227 6.182144 1.788420
C 1.276698 5.197911 1.000523
C 1.652284 5.057096 -0.304679
C 2.572559 5.963813 -0.868688
H 4.265651 6.740893 -3.715048
H 4.976050 8.637080 -2.327460
H 4.236000 8.828843 0.013923
H 2.950516 7.861939 1.948527
H 0.556896 4.535311 1.475879
H 1.257691 4.260612 -0.914856
C 2.065359 2.568098 -4.313998
C 1.676591 1.419969 -3.613153
C 1.321859 0.278574 -4.295903
C 1.339945 0.260475 -5.695264
C 1.743274 1.404483 -6.395545
C 2.104669 2.544796 -5.712564
H 1.660816 1.439819 -2.535067
H 1.024150 -0.607288 -3.758803
H 1.763773 1.388379 -7.474994
H 2.410770 3.428106 -6.253234
C 0.925642 -0.880137 -6.408274
C 0.530468 -1.840520 -7.030368
C 0.022272 -2.885659 -7.822225
C 0.018688 -2.760680 -9.200910
C -0.540106 -3.750973 -10.014220
C -1.120031 -4.869638 -9.468552
C -1.134346 -5.043223 -8.073147
C -1.730644 -6.160935 -7.446362
C -1.696718 -6.275942 -6.087248
N -1.079526 -5.358489 -5.302713
C -0.529699 -4.291504 -5.848061
C -0.538527 -4.058564 -7.232035
H 0.447169 -1.879220 -9.652854
H -0.523319 -3.619966 -11.085415
H -1.568994 -5.621636 -10.098166
H -2.211276 -6.912887 -8.051638
H -2.165676 -7.112092 -5.571497
H -0.048728 -3.580231 -5.179862
C 5.911721 0.274526 0.719655
C 6.154157 1.304365 1.306608
C 6.396963 2.536538 1.941730
C 7.665071 3.091195 1.967710
C 7.892083 4.344448 2.547729
C 6.861535 5.070796 3.087284
C 5.554376 4.538941 3.085037
C 4.445736 5.252860 3.578654
N 3.225927 4.758283 3.578114
C 3.003764 3.497167 3.128762
C 4.005088 2.732286 2.603194
C 5.315446 3.247505 2.534779
H 8.489090 2.550020 1.527995
H 8.894989 4.742895 2.553701
H 7.038010 6.045285 3.513865
H 4.572799 6.257605 3.973999
H 1.978663 3.141903 3.214901
H 3.812694 1.738488 2.232297
C 5.610150 -0.914693 0.029285
C 4.284103 -1.355746 -0.058285
C 3.982590 -2.513385 -0.739015
C 4.999866 -3.259846 -1.344946
C 6.325924 -2.818470 -1.258446
C 6.627493 -1.658160 -0.580393
H 3.503166 -0.782589 0.415738
H 2.964112 -2.861589 -0.799442
H 7.110639 -3.395099 -1.725242
H 7.650277 -1.318807 -0.512379
C 4.703956 -4.463691 -2.011848
C 4.449911 -5.512567 -2.559880
C 4.224246 -6.780064 -3.125879
C 5.292558 -7.629624 -3.355625
C 5.092837 -8.923209 -3.846941
C 3.828627 -9.396561 -4.098443
C 2.713499 -8.565492 -3.890015
C 1.385310 -8.994225 -4.113261
C 0.349179 -8.129695 -3.911304
N 0.548632 -6.844461 -3.527173
C 1.771101 -6.414045 -3.285125
C 2.903198 -7.231897 -3.423901
H 6.294025 -7.290189 -3.139856
H 5.949745 -9.557877 -4.014177
H 3.676883 -10.403168 -4.455289
H 1.203631 -10.005652 -4.439917
H -0.686187 -8.434683 -4.051575
H 1.884069 -5.377291 -2.975680
