336
cid:69, pot: -287.1091526187663
C -0.443865 -0.854849 4.086050
C -1.838264 -1.073357 4.443730
C 0.090298 0.427852 4.113595
C 1.434443 0.644978 3.810650
H -0.516595 1.278793 4.382566
C 2.238958 -0.435488 3.469052
C 1.716888 -1.728674 3.437158
H 3.284065 -0.300635 3.235784
C 0.375827 -1.929611 3.741378
C 2.571749 -2.863489 3.118545
H -0.055911 -2.918758 3.731671
C 2.000800 1.984642 3.879881
H 2.054969 -3.823770 2.965797
H -2.451953 -0.165783 4.553697
H 3.021417 2.093838 3.481419
C -3.798306 -2.218288 0.423141
C -3.787661 -2.943772 1.685501
C -3.363890 -2.840255 -0.741320
C -3.405703 -2.169887 -1.963842
H -2.999612 -3.856094 -0.728037
C -3.877949 -0.863599 -2.008569
C -4.317326 -0.226288 -0.848089
H -3.928635 -0.320622 -2.939866
C -4.269932 -0.906863 0.362718
C -4.849090 1.128008 -0.905179
H -4.608583 -0.443154 1.276586
C -2.988048 -2.838617 -3.187920
H -5.028610 1.613166 0.066818
H -3.261397 -3.910936 1.676516
H -2.904966 -2.197477 -4.079188
C 3.426241 -2.316866 -1.385812
C 4.361252 -2.448443 -0.277489
C 3.513959 -1.228347 -2.245433
C 2.649799 -1.110324 -3.333944
H 4.258557 -0.460982 -2.098900
C 1.687388 -2.089536 -3.548959
C 1.587243 -3.187743 -2.694666
H 1.008511 -2.029938 -4.385789
C 2.455274 -3.291986 -1.614240
C 0.604329 -4.232283 -2.945971
H 2.406872 -4.132871 -0.939327
C 2.771363 0.010350 -4.255653
H 0.485517 -4.980035 -2.146628
H 4.990818 -1.567807 -0.076079
H 1.960574 0.113522 -4.993442
C 0.088217 4.132759 0.268486
C 0.081628 4.507096 1.675603
C -1.109571 4.013428 -0.426053
C -1.115485 3.693783 -1.783823
H -2.056846 4.178647 0.063892
C 0.091652 3.483909 -2.439495
C 1.301894 3.600017 -1.755500
H 0.120349 3.241456 -3.490788
C 1.292230 3.919193 -0.402906
C 2.566158 3.419116 -2.454919
H 2.211984 4.022545 0.152162
C -2.370370 3.609724 -2.517578
H 3.463286 3.373947 -1.818049
H -0.904271 4.505760 2.165995
H -2.301523 3.203988 -3.538801
C -3.670342 -2.402274 5.012703
C -4.356471 -3.255610 3.926812
N -2.301071 -2.228873 4.642564
N -4.370977 -2.502972 2.712208
C -5.800417 -3.556409 4.337518
H -3.789789 -4.198604 3.821503
C -5.848915 -4.273214 5.681290
H -6.266660 -4.167387 3.561606
H -6.345762 -2.612708 4.393435
C -5.168274 -3.431885 6.755630
H -5.339991 -5.236365 5.598285
H -6.887815 -4.464836 5.957108
C -3.728504 -3.129689 6.358749
H -5.181662 -3.960884 7.710699
H -5.714960 -2.494626 6.882787
H -3.158212 -4.056236 6.273753
H -3.246268 -2.507469 7.115688
H -4.205260 -1.437685 5.081146
C 4.633404 -3.895528 2.757308
C 5.406912 -3.612119 1.453589
N 3.825715 -2.754211 3.052077
N 4.461064 -3.515000 0.386881
C 6.366927 -4.767509 1.157459
H 5.975402 -2.674078 1.588228
C 7.338231 -4.981253 2.311802
H 6.910713 -4.545425 0.236715
H 5.777103 -5.670116 0.988527
C 6.574846 -5.258806 3.602408
H 7.953745 -4.087736 2.439440
H 8.002509 -5.816805 2.081865
C 5.618606 -4.112867 3.909012
H 7.273678 -5.384757 4.431797
H 6.008356 -6.186785 3.496269
H 6.176055 -3.187446 4.063789
H 5.053703 -4.320185 4.820420
H 4.023987 -4.804807 2.604916
C 1.966382 4.244760 4.460535
C 1.084664 5.222159 3.657236
N 1.369566 2.948215 4.391540
N 1.135770 4.839738 2.281370
C 1.630073 6.646251 3.793664
H 0.057637 5.170930 4.062238
C 1.691896 7.070630 5.255794
H 0.989068 7.324065 3.225943
H 2.626489 6.676955 3.349459
C 2.561286 6.103460 6.052131
H 0.682869 7.080418 5.674576
H 2.094968 8.082870 5.326781
C 2.025037 4.682864 5.926438
H 2.581042 6.395935 7.103884
H 3.585345 6.140578 5.673557
H 1.018639 4.621143 6.344278
H 2.659722 3.984909 6.476846
H 2.980696 4.256536 4.021867
C -2.377091 -4.704106 -4.450049
C -0.987527 -5.340361 -4.244058
N -2.765455 -4.078722 -3.225423
N -0.045336 -4.288576 -4.024659
C -0.579037 -6.114224 -5.500430
H -1.048387 -6.027270 -3.380523
C -1.606113 -7.187276 -5.840164
H 0.402025 -6.563935 -5.332866
H -0.486250 -5.405966 -6.325609
C -2.981407 -6.559968 -6.041385
H -1.654807 -7.914681 -5.026599
H -1.298693 -7.715262 -6.745145
C -3.399902 -5.790195 -4.794783
H -3.719136 -7.335097 -6.258185
H -2.948153 -5.879206 -6.895229
H -3.482480 -6.467580 -3.943107
H -4.374259 -5.320384 -4.945137
H -2.303387 -3.977877 -5.279762
C -5.652615 3.016287 -2.016855
C -4.667749 3.926513 -2.778403
N -5.112797 1.693381 -2.000464
N -3.459010 4.005542 -2.020659
C -5.257968 5.332960 -2.912986
H -4.499981 3.490032 -3.779733
C -6.603202 5.295691 -3.627557
H -4.551289 5.959634 -3.461306
H -5.373451 5.754464 -1.912927
C -7.577252 4.393764 -2.877100
H -6.465572 4.915837 -4.642531
H -7.007996 6.307223 -3.699402
C -7.001452 2.989670 -2.740951
H -8.530987 4.348909 -3.406735
H -7.763579 4.808346 -1.883673
H -6.853788 2.545162 -3.726728
H -7.687040 2.348032 -2.183316
H -5.779290 3.423537 -0.997357
C 3.855231 1.869397 -5.158752
C 3.888120 3.191001 -4.364661
N 3.759488 0.792247 -4.224868
N 2.626746 3.348620 -3.711925
C 4.098420 4.367288 -5.321965
H 4.723141 3.137704 -3.642672
C 5.384765 4.199019 -6.121063
H 4.127444 5.291951 -4.741544
H 3.240686 4.420774 -5.994615
C 5.354969 2.891270 -6.904727
H 6.238475 4.193905 -5.439283
H 5.505051 5.042649 -6.803683
C 5.150019 1.712779 -5.960820
H 6.289313 2.762033 -7.454625
H 4.539102 2.921957 -7.630619
H 5.982843 1.642225 -5.258985
H 5.104716 0.777115 -6.522268
H 2.988351 1.901068 -5.843439
C -0.364575 0.941221 -4.369709
C 0.735451 1.835961 -4.700493
C -1.573186 1.458864 -3.919484
C -2.646834 0.614635 -3.636352
H -1.711849 2.521628 -3.793008
C -2.496111 -0.757252 -3.798872
C -1.288961 -1.291421 -4.249952
H -3.310147 -1.435716 -3.594262
C -0.228004 -0.437950 -4.528002
C -1.146845 -2.725528 -4.458015
H 0.716338 -0.820225 -4.884587
C -3.924472 1.163182 -3.203761
H -0.125398 -3.079761 -4.666995
H 0.601617 2.888285 -4.405527
H -4.667613 0.428669 -2.856532
C 3.808086 1.023583 -1.351313
C 3.974817 0.949750 -2.795837
C 4.130663 -0.069641 -0.556135
C 4.012846 0.001124 0.832012
H 4.491493 -0.988678 -0.991878
C 3.557851 1.176233 1.417980
C 3.230259 2.281713 0.632784
H 3.461999 1.264259 2.489322
C 3.352810 2.196570 -0.748917
C 2.792367 3.524394 1.252722
H 3.113249 3.036619 -1.382730
C 4.390446 -1.132301 1.664338
H 2.407483 4.292987 0.564506
H 4.188996 -0.051156 -3.201649
H 4.124283 -1.053487 2.729822
C -1.130374 -4.424343 -0.164807
C -1.992409 -4.761957 -1.288551
C -1.687229 -4.037399 1.048428
C -0.874044 -3.749167 2.144427
H -2.756799 -3.965573 1.173070
C 0.506171 -3.842081 2.011658
C 1.079560 -4.229070 0.800324
H 1.161698 -3.631805 2.842835
C 0.256627 -4.513292 -0.283082
C 2.524041 -4.364391 0.676258
H 0.669924 -4.821385 -1.231331
C -1.462576 -3.383717 3.425168
H 2.904079 -4.521857 -0.344958
H -3.059157 -4.519573 -1.162452
H -0.757694 -3.023880 4.190690
C -3.040058 2.668313 1.070160
C -3.581137 3.393009 -0.070966
C -1.916048 3.149004 1.731161
C -1.410825 2.485793 2.849472
H -1.419892 4.049898 1.404218
C -2.036566 1.327786 3.295173
C -3.165496 0.833134 2.641717
H -1.673423 0.795638 4.160958
C -3.657672 1.504651 1.528969
C -3.842490 -0.357708 3.135526
H -4.532910 1.150643 1.006085
C -0.257554 3.014898 3.563779
H -4.625834 -0.769356 2.480254
H -2.951833 4.207640 -0.461880
H 0.171233 2.356462 4.335072
C 2.811180 2.344576 -5.637992
C 4.098979 1.863256 -4.939297
N 1.761001 1.431956 -5.312134
N 3.907501 1.973848 -3.527528
C 5.275780 2.753187 -5.348275
H 4.289175 0.819740 -5.249649
C 5.463301 2.751403 -6.860428
H 6.178735 2.392581 -4.850930
H 5.080156 3.766602 -4.993563
C 4.189746 3.224389 -7.552948
H 5.704385 1.739953 -7.195783
H 6.298882 3.401753 -7.126855
C 3.012078 2.342802 -7.155861
H 4.319531 3.196021 -8.636707
H 3.983355 4.258108 -7.266066
H 3.184743 1.314722 -7.478661
H 2.094334 2.694053 -7.632348
H 2.591935 3.369278 -5.287135
C -1.961859 -4.903032 -4.658640
C -2.428864 -5.658660 -3.397967
N -2.137990 -3.503727 -4.428933
N -1.546308 -5.323207 -2.325340
C -2.357416 -7.168684 -3.641055
H -3.471007 -5.359629 -3.184284
C -3.205382 -7.570134 -4.841660
H -2.699151 -7.685916 -2.741893
H -1.313941 -7.441194 -3.807951
C -2.746661 -6.821664 -6.088562
H -4.253260 -7.334455 -4.642044
H -3.127789 -8.647587 -5.001214
C -2.817292 -5.317028 -5.859037
H -3.373933 -7.092178 -6.940339
H -1.718582 -7.105798 -6.324519
H -3.847788 -5.012431 -5.668178
H -2.467059 -4.778929 -6.742510
H -0.903175 -5.161587 -4.842156
C -5.442613 2.897960 -2.839814
C -5.217571 3.870206 -1.664257
N -4.169279 2.398620 -3.253768
N -4.711611 3.121035 -0.557606
C -6.547281 4.511710 -1.258605
H -4.507427 4.650104 -1.994239
C -7.182992 5.243088 -2.434416
H -6.366790 5.201966 -0.431818
H -7.212997 3.725213 -0.898910
C -7.403696 4.283546 -3.598888
H -6.527558 6.056659 -2.753988
H -8.133897 5.680225 -2.123165
C -6.085402 3.641911 -4.013533
H -7.834475 4.817383 -4.448283
H -8.108639 3.504942 -3.298493
H -5.386944 4.405394 -4.360617
H -6.244669 2.936491 -4.832060
H -6.111038 2.088700 -2.493846
C 5.381388 -3.210375 2.046513
C 4.695426 -4.488422 1.522916
N 5.008934 -2.125283 1.194785
N 3.283878 -4.331898 1.681515
C 5.152837 -5.697176 2.343715
H 4.979758 -4.621922 0.463366
C 6.667788 -5.851904 2.292152
H 4.663915 -6.592439 1.953596
H 4.822702 -5.557629 3.374586
C 7.347690 -4.587759 2.807019
H 6.979517 -6.037360 1.261658
H 6.969025 -6.711552 2.894274
C 6.902425 -3.378372 1.994003
H 8.432557 -4.692785 2.743170
H 7.085634 -4.436865 3.856826
H 7.199775 -3.495137 0.950458
H 7.369965 -2.468305 2.376022
H 5.055270 -3.047639 3.089795
C 2.456810 4.954209 3.066542
C 1.319278 4.660528 4.065643
N 2.878017 3.713772 2.495987
N 0.198352 4.166547 3.330092
C 0.909646 5.951048 4.780703
H 1.688898 3.922678 4.800632
C 2.096823 6.577811 5.501328
H 0.110344 5.721959 5.488810
H 0.510523 6.643870 4.037743
C 3.223551 6.866209 4.515065
H 2.456556 5.893390 6.273073
H 1.781927 7.501276 5.991562
C 3.642164 5.587321 3.800405
H 4.081978 7.290434 5.039808
H 2.883281 7.598983 3.779786
H 4.028502 4.862479 4.519185
H 4.433046 5.795467 3.076518
H 2.070737 5.651309 2.300920
C -3.236928 -3.152550 4.923382
C -4.264901 -2.021801 4.716415
N -2.697679 -3.501769 3.647097
N -3.565214 -0.864012 4.256057
C -4.946749 -1.689506 6.046517
H -5.015662 -2.369388 3.983709
C -5.625963 -2.919775 6.635332
H -5.675927 -0.894110 5.878581
H -4.190022 -1.310354 6.735433
C -4.611261 -4.039821 6.837959
H -6.411986 -3.260736 5.957387
H -6.093052 -2.659918 7.587470
C -3.929148 -4.381524 5.519018
H -5.107080 -4.927901 7.234881
H -3.859836 -3.721357 7.564208
H -4.663002 -4.745983 4.797985
H -3.185079 -5.167255 5.666145
H -2.457088 -2.785977 5.615252
