308
cid:62, pot: -223.01596237722208
Pd -3.211448 3.886975 -0.620021
Pd 1.944793 -3.854337 -0.228994
C 5.489048 1.047160 -1.121545
C 5.976829 -0.059970 -1.112884
C 6.613286 -1.309648 -1.240603
C 7.969047 -1.356204 -1.511928
C 8.613698 -2.571615 -1.764706
C 7.912518 -3.751479 -1.784252
C 6.534273 -3.754027 -1.502382
C 5.748814 -4.928397 -1.534439
C 4.422412 -4.867002 -1.221638
N 3.829364 -3.712358 -0.830156
C 4.520124 -2.589013 -0.822299
C 5.875041 -2.530704 -1.184725
H 8.534569 -0.437567 -1.544491
H 9.673424 -2.569570 -1.969747
H 8.405233 -4.682653 -2.016094
H 6.207832 -5.863943 -1.811314
H 3.781155 -5.744570 -1.272032
H 4.003062 -1.686478 -0.505548
C 4.902887 2.326772 -1.228197
C 5.706372 3.446174 -1.468278
C 5.117946 4.683960 -1.651745
C 3.741378 4.826035 -1.605645
C 2.925881 3.718221 -1.361141
C 3.518660 2.472401 -1.163033
H 6.778847 3.336859 -1.517251
H 5.738281 5.546327 -1.843539
H 3.304969 5.793992 -1.795002
H 2.916227 1.608260 -0.933546
C 1.465917 3.845191 -1.325609
C 0.829106 4.997471 -0.853444
C -0.548676 5.039276 -0.789539
N -1.307170 4.000671 -1.151867
C -0.721977 2.901907 -1.644739
C 0.645631 2.794071 -1.757624
H 1.403629 5.843321 -0.512707
H -1.075400 5.919380 -0.432326
H -1.395060 2.101708 -1.949139
H 1.084633 1.909960 -2.190807
C 2.122435 -0.912065 5.107717
C 2.687275 -1.975381 4.989539
C 3.265978 -3.259083 4.979238
C 3.858511 -3.747199 6.130066
C 4.335375 -5.060755 6.195481
C 4.198631 -5.915043 5.129858
C 3.612846 -5.459167 3.934768
C 3.415442 -6.293859 2.811714
C 2.867638 -5.781087 1.672195
N 2.543084 -4.469851 1.558375
C 2.679788 -3.667054 2.595744
C 3.176172 -4.106113 3.833040
H 3.939274 -3.108509 6.996234
H 4.794664 -5.406077 7.109093
H 4.533649 -6.938279 5.196207
H 3.697151 -7.333021 2.869261
H 2.667392 -6.403649 0.802866
H 2.404257 -2.623639 2.460251
C 1.380219 0.277425 5.271502
C 1.364108 0.925531 6.510821
C 0.569912 2.043479 6.687903
C -0.213986 2.524579 5.652893
C -0.203722 1.891838 4.407172
C 0.606940 0.772930 4.223640
H 1.963835 0.545417 7.323498
H 0.552738 2.539309 7.646523
H -0.857975 3.371447 5.829817
H 0.665572 0.289628 3.261654
C -1.041340 2.375885 3.305760
C -1.334732 3.732552 3.133431
C -2.087186 4.136720 2.049657
N -2.538773 3.271108 1.137535
C -2.302025 1.963374 1.300729
C -1.576273 1.483018 2.367117
H -0.957107 4.469399 3.823296
H -2.337647 5.181184 1.888507
H -2.718743 1.306841 0.538199
H -1.432664 0.421661 2.488589
C -6.755459 -1.015470 0.267545
C -7.241866 0.092234 0.265330
C -7.877042 1.341805 0.400751
C -9.231548 1.387733 0.678784
C -9.874651 2.602376 0.939443
C -9.172986 3.781875 0.959932
C -7.796191 3.785180 0.671282
C -7.010261 4.959210 0.703675
C -5.685320 4.898668 0.384296
N -5.094408 3.745216 -0.013966
C -5.785545 2.622063 -0.022677
C -7.138802 2.562802 0.345891
H -9.797085 0.469122 0.710739
H -10.933248 2.599835 1.149686
H -9.664229 4.712354 1.197635
H -7.467713 5.893914 0.985892
H -5.043776 5.775930 0.434751
H -5.270138 1.720577 -0.345269
C -6.170375 -2.296127 0.366803
C -6.974986 -3.416952 0.595754
C -6.387648 -4.656263 0.772249
C -5.010856 -4.798441 0.730074
C -4.194218 -3.689199 0.496798
C -4.785971 -2.441770 0.305567
H -8.047614 -3.307774 0.641713
H -7.008847 -5.519837 0.955501
H -4.575503 -5.767877 0.913975
H -4.182320 -1.576138 0.084857
C -2.734210 -3.816141 0.465217
C -2.096143 -4.965053 -0.013365
C -0.718163 -5.006517 -0.073458
N 0.039499 -3.970556 0.298338
C -0.547207 -2.875522 0.797683
C -1.915064 -2.768320 0.907485
H -2.669677 -5.808384 -0.361867
H -0.190459 -5.884153 -0.435590
H 0.125032 -2.077658 1.109918
H -2.355079 -1.887511 1.346127
C -3.368656 0.957361 -5.966746
C -3.937001 2.018654 -5.846681
C -4.519604 3.300560 -5.834129
C -5.109442 3.790768 -6.985488
C -5.590234 5.102943 -7.048254
C -5.460082 5.953987 -5.979262
C -4.877167 5.495926 -4.783608
C -4.686093 6.327511 -3.657233
C -4.140377 5.812869 -2.517600
N -3.812038 4.502286 -2.406785
C -3.942901 3.702327 -3.447179
C -4.436549 4.143934 -4.684724
H -5.185042 3.154651 -7.854149
H -6.047278 5.449901 -7.962407
H -5.798101 6.976338 -6.043341
H -4.970906 7.366062 -3.712299
H -3.944891 6.433403 -1.645762
H -3.664520 2.659513 -3.314327
C -2.622353 -0.229401 -6.131626
C -2.595702 -0.870654 -7.374298
C -1.797813 -1.985900 -7.551595
C -1.020454 -2.471102 -6.513501
C -1.041233 -1.845082 -5.264536
C -1.855735 -0.729061 -5.080860
H -3.190244 -0.487290 -8.189292
H -1.772576 -2.476420 -8.512788
H -0.373378 -3.315490 -6.690224
H -1.922584 -0.251126 -4.116679
C -0.210083 -2.332867 -4.159861
C 0.085464 -3.689631 -3.992162
C 0.832283 -4.097183 -2.905788
N 1.276235 -3.234868 -1.986868
C 1.037048 -1.926983 -2.144977
C 0.316486 -1.443280 -3.213381
H -0.286101 -4.424037 -4.688021
H 1.084267 -5.141806 -2.747940
H 1.447056 -1.272996 -1.376542
H 0.170451 -0.381839 -3.330480
Pd 3.088897 -3.610034 0.309225
Pd -3.045346 3.324929 -0.662819
C -2.577088 0.125330 -5.851856
C -3.277346 1.110906 -5.808703
C -4.016481 2.306910 -5.889112
C -4.609663 2.658773 -7.088341
C -5.249175 3.893231 -7.242962
C -5.277525 4.806368 -6.218524
C -4.697569 4.487353 -4.977202
C -4.666542 5.391991 -3.891957
C -4.114847 5.009395 -2.704453
N -3.628833 3.759024 -2.507874
C -3.607326 2.898173 -3.506659
C -4.094091 3.210122 -4.785826
H -4.563865 1.975556 -7.922522
H -5.703640 4.132283 -8.192386
H -5.738984 5.772160 -6.352517
H -5.077582 6.381079 -4.016340
H -4.041319 5.692608 -1.860847
H -3.204704 1.908460 -3.304948
C -1.684332 -0.965633 -5.925317
C -1.547555 -1.677915 -7.121222
C -0.613148 -2.693255 -7.209631
C 0.192351 -3.008758 -6.128450
C 0.063505 -2.310026 -4.925435
C -0.887131 -1.295127 -4.831067
H -2.165000 -1.426328 -7.969766
H -0.503497 -3.238233 -8.134986
H 0.943009 -3.775641 -6.236665
H -1.035215 -0.766384 -3.903239
C 0.918560 -2.617709 -3.775178
C 1.369717 -3.914228 -3.507274
C 2.125214 -4.155065 -2.377993
N 2.432983 -3.186329 -1.510768
C 2.046466 -1.930312 -1.766749
C 1.307733 -1.609309 -2.883001
H 1.110416 -4.732751 -4.158756
H 2.495361 -5.148578 -2.142123
H 2.352708 -1.181575 -1.037552
H 1.041666 -0.583209 -3.078951
C -5.939745 -1.945732 0.343291
C -6.575026 -0.920141 0.251862
C -7.379562 0.235049 0.282435
C -8.741429 0.110055 0.490943
C -9.554377 1.237561 0.648634
C -9.018842 2.501227 0.634834
C -7.640572 2.677610 0.414369
C -7.021022 3.947776 0.417219
C -5.683717 4.051729 0.167602
N -4.923172 2.970776 -0.133714
C -5.457473 1.765238 -0.111825
C -6.809150 1.541225 0.192813
H -9.180348 -0.874222 0.548748
H -10.613370 1.101413 0.806622
H -9.642498 3.366852 0.793893
H -7.613844 4.824740 0.622012
H -5.168194 5.009162 0.199058
H -4.809620 0.926663 -0.356998
C -5.189269 -3.123510 0.548802
C -5.841841 -4.325052 0.842799
C -5.098264 -5.456292 1.124366
C -3.714416 -5.410457 1.123966
C -3.048001 -4.219160 0.825894
C -3.796715 -3.081644 0.528572
H -6.920316 -4.361082 0.856859
H -5.602416 -6.381781 1.357777
H -3.158166 -6.295376 1.390142
H -3.308992 -2.159737 0.255124
C -1.583893 -4.147364 0.839225
C -0.781368 -5.231605 0.469469
C 0.591262 -5.091497 0.452722
N 1.190319 -3.938809 0.765196
C 0.445157 -2.897874 1.157736
C -0.928196 -2.968161 1.218600
H -1.224119 -6.167944 0.171553
H 1.243912 -5.914265 0.175710
H 0.993418 -1.995434 1.424402
H -1.497161 -2.123562 1.571803
C 2.623782 -0.406937 5.496276
C 3.318771 -1.396283 5.454577
C 4.051457 -2.596061 5.537317
C 4.638810 -2.950872 6.738688
C 5.271436 -4.188595 6.895740
C 5.298680 -5.101848 5.871457
C 4.724727 -4.780028 4.628089
C 4.693104 -5.684489 3.542728
C 4.147315 -5.299363 2.353253
N 3.667904 -4.046729 2.155022
C 3.647258 -3.185563 3.153664
C 4.128389 -3.499786 4.434487
H 4.593553 -2.267270 7.572574
H 5.721155 -4.429824 7.846713
H 5.754690 -6.069986 6.007079
H 5.098927 -6.675520 3.668507
H 4.073553 -5.982303 1.509539
H 3.250358 -2.193921 2.950348
C 1.736637 0.688545 5.567854
C 1.608083 1.407856 6.760406
C 0.678733 2.428115 6.847284
C -0.129724 2.741580 5.767659
C -0.009195 2.035854 4.568009
C 0.936416 1.016128 4.475147
H 2.227749 1.157921 7.607836
H 0.575386 2.978508 7.770119
H -0.876381 3.512392 5.874973
H 1.077893 0.481565 3.549567
C -0.867221 2.341426 3.419430
C -1.313083 3.638630 3.146403
C -2.071396 3.877319 2.018460
N -2.386541 2.905643 1.157039
C -2.005329 1.649053 1.418539
C -1.264462 1.330233 2.533904
H -1.047706 4.459303 3.792723
H -2.437521 4.871422 1.778696
H -2.317596 0.898093 0.694299
H -1.003052 0.303924 2.734331
C 5.983628 1.657849 -0.722759
C 6.618765 0.632536 -0.626875
C 7.423243 -0.522849 -0.652606
C 8.784776 -0.398951 -0.864368
C 9.597453 -1.527219 -1.017165
C 9.061988 -2.790788 -0.995276
C 7.684217 -2.965982 -0.771403
C 7.064615 -4.235980 -0.766463
C 5.727781 -4.338768 -0.514365
N 4.967505 -3.256321 -0.217670
C 5.501673 -2.050821 -0.246709
C 6.852998 -1.828470 -0.554694
H 9.223505 0.585110 -0.928443
H 10.656174 -1.391926 -1.177843
H 9.685395 -3.657272 -1.150572
H 7.657244 -5.114240 -0.967419
H 5.212321 -5.296408 -0.540065
H 4.854454 -1.210963 -0.005257
C 5.232646 2.834375 -0.933122
C 5.884296 4.033327 -1.239846
C 5.139720 5.162914 -1.525561
C 3.755767 5.118051 -1.516895
C 3.090563 3.929310 -1.206254
C 3.840163 2.793648 -0.904591
H 6.962728 4.068483 -1.260391
H 5.643101 6.086248 -1.768693
H 3.198534 6.001085 -1.786446
H 3.353606 1.874081 -0.621439
C 1.626305 3.858139 -1.211448
C 0.825888 4.945224 -0.845411
C -0.546693 4.805809 -0.821625
N -1.147597 3.651355 -1.123671
C -0.404703 2.607304 -1.512091
C 0.968418 2.676479 -1.579352
H 1.270564 5.883394 -0.555974
H -1.197917 5.630655 -0.547201
H -0.954489 1.703038 -1.769740
H 1.535689 1.829242 -1.928757
