372
cid:69, pot: -240.82971378675126
Pd -1.418653 7.032110 0.912519
Pd 0.910620 -6.571863 -0.599039
C 5.374902 -0.305261 -0.097575
C 5.584765 -1.492969 -0.193013
C 5.788740 -2.884320 -0.247848
C 7.035598 -3.435346 -0.006986
C 7.222600 -4.822270 -0.003515
C 6.171795 -5.677694 -0.215860
C 4.885313 -5.156265 -0.469725
C 3.756464 -5.978910 -0.647597
N 2.555860 -5.494587 -0.884970
C 2.375579 -4.155322 -1.010036
C 3.398650 -3.269960 -0.827298
C 4.688182 -3.746739 -0.516339
H 7.874231 -2.783843 0.186824
H 8.210031 -5.215457 0.183346
H 6.316834 -6.745893 -0.191042
H 3.850778 -7.060060 -0.583255
H 1.365326 -3.839225 -1.262883
H 3.238879 -2.207107 -0.910982
C 5.110383 1.072230 0.022663
C 6.148563 1.973158 0.286575
C 5.883296 3.319383 0.407502
C 4.573214 3.794578 0.270459
C 3.534944 2.892376 0.011374
C 3.800333 1.547542 -0.113182
H 7.159134 1.607165 0.390518
H 6.684280 4.015618 0.606604
H 2.529134 3.263207 -0.102993
H 3.003346 0.851104 -0.320081
C 4.315104 5.175130 0.363092
C 4.093930 6.364129 0.413781
C 3.908978 7.758029 0.389780
C 5.005141 8.594403 0.268226
C 4.847731 9.979771 0.165947
C 3.599211 10.551208 0.163986
C 2.456597 9.742092 0.296150
C 1.142697 10.262941 0.285806
C 0.077879 9.423845 0.439815
N 0.234127 8.091091 0.635535
C 1.442493 7.563756 0.626922
C 2.602202 8.331297 0.437672
H 5.995826 8.166934 0.239813
H 5.725401 10.601040 0.072592
H 3.480499 11.618426 0.061407
H 0.994831 11.322748 0.153204
H -0.947139 9.789318 0.413362
H 1.520683 6.490205 0.784144
C 1.701120 -1.530537 5.187843
C 1.954607 -2.704285 5.040647
C 2.284967 -4.053948 4.813509
C 3.093198 -4.751975 5.693693
C 3.470380 -6.074398 5.432273
C 3.066823 -6.711026 4.286814
C 2.234019 -6.037215 3.367956
C 1.819087 -6.618761 2.154716
N 1.037442 -5.994467 1.298915
C 0.563801 -4.756692 1.589450
C 0.930307 -4.092305 2.724699
C 1.810900 -4.704874 3.639331
H 3.444493 -4.264759 6.590579
H 4.099651 -6.587754 6.142827
H 3.377590 -7.722574 4.079595
H 2.149093 -7.619582 1.886374
H -0.126239 -4.333984 0.862494
H 0.558701 -3.102312 2.935180
C 1.392107 -0.164139 5.331718
C 1.418704 0.443058 6.592202
C 1.092538 1.774709 6.725264
C 0.738109 2.530184 5.600380
C 0.732684 1.926799 4.337576
C 1.052167 0.594493 4.205002
H 1.687101 -0.140179 7.460460
H 1.103020 2.241877 7.698733
H 0.472590 2.513642 3.471534
H 1.045954 0.124289 3.234492
C 0.358727 3.876298 5.759319
C -0.007219 5.020138 5.911342
C -0.484801 6.315371 6.179212
C -0.507762 6.780570 7.482933
C -1.038025 8.036568 7.792151
C -1.569951 8.839691 6.813649
C -1.562961 8.412116 5.473967
C -2.110457 9.180664 4.421747
C -2.057867 8.713861 3.140801
N -1.466767 7.534276 2.828555
C -0.963032 6.778810 3.784435
C -0.995275 7.148357 5.138008
H -0.117338 6.157836 8.273243
H -1.037494 8.366557 8.819746
H -1.997306 9.799285 7.058638
H -2.569217 10.130811 4.643992
H -2.489786 9.269741 2.310563
H -0.501745 5.839033 3.487999
C -5.902012 0.801835 0.129181
C -6.104464 1.992057 0.207308
C -6.296286 3.386211 0.246926
C -7.519057 3.950849 -0.071129
C -7.688314 5.340176 -0.091275
C -6.642626 6.183509 0.183895
C -5.381641 5.647541 0.522309
C -4.257914 6.457186 0.775074
N -3.082306 5.959720 1.096771
C -2.927546 4.619172 1.237987
C -3.945755 3.745021 0.985873
C -5.204732 4.235885 0.584309
H -8.351565 3.308836 -0.315798
H -8.657102 5.744338 -0.341454
H -6.772513 7.253339 0.146218
H -4.335262 7.539358 0.701200
H -1.944147 4.290953 1.567226
H -3.804104 2.680964 1.086834
C -5.636725 -0.578647 0.044183
C -4.323484 -1.023897 -0.149751
C -4.051922 -2.371666 -0.217359
C -5.085525 -3.306025 -0.085035
C -6.401061 -2.859893 0.093938
C -6.674180 -1.511095 0.155000
H -3.529917 -0.300338 -0.247653
H -3.042150 -2.717126 -0.368647
H -7.199437 -3.580549 0.189260
H -7.688049 -1.167852 0.298082
C -4.816056 -4.687478 -0.094978
C -4.589135 -5.876012 -0.058899
C -4.400070 -7.264134 0.063952
C -5.492752 -8.088268 0.271976
C -5.333384 -9.463537 0.465508
C -4.085335 -10.036198 0.474155
C -2.946161 -9.239783 0.260740
C -1.632832 -9.761876 0.275554
C -0.570933 -8.936456 0.046336
N -0.730298 -7.618043 -0.226618
C -1.937997 -7.089087 -0.229116
C -3.094629 -7.841235 0.028225
H -6.482510 -7.658411 0.293411
H -6.208626 -10.075103 0.623165
H -3.964636 -11.094357 0.644708
H -1.483030 -10.811529 0.472150
H 0.454273 -9.301439 0.072911
H -2.017927 -6.026721 -0.449618
C -1.932388 2.037657 -4.938406
C -2.171867 3.215964 -4.803801
C -2.491695 4.570088 -4.592418
C -3.232833 5.283870 -5.518471
C -3.600080 6.612722 -5.278051
C -3.256502 7.240484 -4.108087
C -2.497217 6.549335 -3.140048
C -2.153307 7.119190 -1.899258
N -1.444594 6.476489 -0.995322
C -0.977637 5.229604 -1.257984
C -1.278569 4.576779 -2.418667
C -2.081855 5.210143 -3.388577
H -3.536402 4.804634 -6.436827
H -4.173998 7.139045 -6.025179
H -3.560159 8.257583 -3.918418
H -2.480243 8.125419 -1.649032
H -0.352428 4.789686 -0.483397
H -0.916992 3.578979 -2.607969
C -1.657627 0.663524 -5.072814
C -1.007027 -0.024053 -4.041048
C -0.743246 -1.369323 -4.163759
C -1.119859 -2.058479 -5.322337
C -1.771445 -1.371401 -6.353936
C -2.038769 -0.025948 -6.229858
H -0.711404 0.510967 -3.152526
H -0.233046 -1.899687 -3.375907
H -2.061071 -1.903079 -7.248069
H -2.539751 0.504097 -7.026048
C -0.821315 -3.426085 -5.470520
C -0.538005 -4.594979 -5.606700
C -0.152674 -5.924380 -5.855768
C -0.209080 -6.425795 -7.144645
C 0.237528 -7.718127 -7.436116
C 0.763481 -8.522364 -6.455320
C 0.831035 -8.059419 -5.129155
C 1.374711 -8.828470 -4.075250
C 1.390708 -8.327165 -2.806369
N 0.869504 -7.111712 -2.505990
C 0.375707 -6.354238 -3.465507
C 0.346321 -6.757720 -4.809447
H -0.593130 -5.802940 -7.937980
H 0.178100 -8.075736 -8.452816
H 1.128628 -9.510287 -6.688266
H 1.775447 -9.807008 -4.286498
H 1.822836 -8.883662 -1.976685
H -0.028330 -5.385441 -3.179759
Pd 2.669857 -6.388995 -0.822069
Pd -3.015553 6.169752 0.830714
C 3.919077 3.571121 -1.316320
C 3.417963 4.667052 -1.208823
C 2.783460 5.920444 -1.125453
C 3.359883 7.052817 -1.674823
C 2.699286 8.286217 -1.642728
C 1.451243 8.405292 -1.086669
C 0.830623 7.275821 -0.511800
C -0.467714 7.319697 0.031440
N -1.048110 6.267496 0.568445
C -0.377485 5.090767 0.653893
C 0.874462 4.934894 0.132049
C 1.508043 6.023253 -0.501177
H 4.331334 6.980360 -2.139917
H 3.181850 9.148343 -2.076759
H 0.937335 9.353223 -1.083425
H -1.038764 8.244633 0.012030
H -0.904685 4.285907 1.162437
H 1.389638 3.989733 0.189656
C 4.481464 2.286856 -1.444134
C 5.732385 2.117597 -2.048890
C 6.275865 0.858307 -2.175172
C 5.579085 -0.260587 -1.702409
C 4.326057 -0.090918 -1.102256
C 3.784444 1.167774 -0.972545
H 6.270651 2.980476 -2.411920
H 7.242872 0.727289 -2.637452
H 3.797022 -0.953746 -0.730922
H 2.822481 1.302142 -0.503923
C 6.155543 -1.540470 -1.805851
C 6.660675 -2.638829 -1.867430
C 7.332354 -3.874280 -1.880893
C 8.693481 -3.913418 -2.129140
C 9.402332 -5.117182 -2.075035
C 8.772630 -6.294698 -1.755182
C 7.388700 -6.305457 -1.505569
C 6.681572 -7.478195 -1.155830
C 5.334322 -7.422635 -0.947326
N 4.630105 -6.273103 -1.093909
C 5.257269 -5.153174 -1.395116
C 6.645541 -5.092303 -1.592248
H 9.216188 -2.996723 -2.355965
H 10.463061 -5.109700 -2.274546
H 9.327044 -7.217849 -1.691340
H 7.217243 -8.408496 -1.054587
H 4.763908 -8.302260 -0.654364
H 4.653397 -4.254313 -1.499216
C -1.031642 1.857558 -5.251794
C -1.477273 2.973115 -5.108044
C -1.944276 4.284697 -4.898452
C -1.961562 5.212160 -5.925457
C -2.367561 6.532301 -5.698087
C -2.741154 6.951115 -4.446916
C -2.746526 6.033823 -3.374453
C -3.078870 6.409207 -2.058798
N -3.090372 5.554121 -1.057909
C -2.815428 4.244161 -1.280341
C -2.451556 3.782816 -2.512991
C -2.372789 4.678186 -3.598897
H -1.648337 4.913496 -6.914341
H -2.370286 7.226933 -6.523765
H -3.032650 7.974480 -4.272417
H -3.332983 7.441901 -1.831833
H -2.907628 3.590309 -0.415954
H -2.220259 2.741777 -2.672017
C -0.516266 0.554187 -5.388867
C -0.480697 -0.069375 -6.641096
C 0.004248 -1.353131 -6.760740
C 0.469575 -2.039624 -5.632151
C 0.453123 -1.406750 -4.383944
C -0.037445 -0.126440 -4.262848
H -0.843916 0.457614 -7.510792
H 0.022944 -1.839015 -7.724885
H 0.824281 -1.932313 -3.518951
H -0.055397 0.364017 -3.302498
C 0.915012 -3.368534 -5.762384
C 1.255419 -4.524590 -5.876949
C 1.566642 -5.880773 -6.080240
C 1.470242 -6.422310 -7.350676
C 1.707114 -7.781516 -7.576164
C 2.024294 -8.625078 -6.540230
C 2.139821 -8.119098 -5.233187
C 2.444691 -8.934983 -4.120040
C 2.556903 -8.377890 -2.879737
N 2.411924 -7.045598 -2.673591
C 2.106693 -6.254257 -3.682929
C 1.934417 -6.729142 -4.992257
H 1.198880 -5.784412 -8.177951
H 1.624219 -8.167888 -8.580433
H 2.185837 -9.677253 -6.714469
H 2.582617 -9.994732 -4.263066
H 2.768206 -8.980491 -1.998259
H 1.996542 -5.192933 -3.470304
C -4.183083 -3.798297 1.597822
C -3.670178 -4.890079 1.504559
C -3.020628 -6.137002 1.432223
C -3.550009 -7.257798 2.047584
C -2.869897 -8.481074 2.026296
C -1.649565 -8.600555 1.412350
C -1.079631 -7.483474 0.764764
C 0.187256 -7.528434 0.152196
N 0.718261 -6.489586 -0.457610
C 0.022919 -5.328215 -0.551124
C -1.200229 -5.170733 0.035010
C -1.777931 -6.242627 0.745256
H -4.497670 -7.183639 2.559009
H -3.314845 -9.334121 2.514917
H -1.119643 -9.539570 1.417012
H 0.774484 -8.443374 0.175763
H 0.502005 -4.537643 -1.124351
H -1.734687 -4.236920 -0.033955
C -4.756007 -2.515270 1.691920
C -3.951040 -1.380685 1.532964
C -4.504829 -0.122644 1.606553
C -5.877450 0.030649 1.833002
C -6.679669 -1.104271 2.006845
C -6.124761 -2.363228 1.939855
H -2.894576 -1.503877 1.355143
H -3.887082 0.752487 1.486584
H -7.737466 -0.985871 2.188336
H -6.744733 -3.237989 2.069022
C -6.467769 1.308187 1.854146
C -6.991378 2.399425 1.831060
C -7.682947 3.621109 1.748393
C -9.057401 3.642337 1.912201
C -9.783299 4.828566 1.769595
C -9.156426 6.005918 1.443479
C -7.760800 6.034445 1.273463
C -7.056055 7.207423 0.919673
C -5.698857 7.169922 0.784858
N -4.984703 6.039103 1.007063
C -5.607479 4.919610 1.318601
C -7.002634 4.840092 1.448756
H -9.576157 2.725070 2.145297
H -10.853707 4.807133 1.906236
H -9.722218 6.915023 1.313517
H -7.601432 8.123165 0.756030
H -5.128078 8.049285 0.491599
H -4.994520 4.036150 1.484473
C 0.943346 -1.949429 5.240134
C 1.405751 -3.059182 5.104163
C 1.887651 -4.366554 4.906337
C 1.977980 -5.263162 5.957219
C 2.400978 -6.580485 5.746672
C 2.716738 -7.029206 4.489820
C 2.642262 -6.145437 3.392119
C 2.905824 -6.555155 2.071102
N 2.837617 -5.732255 1.046053
C 2.544836 -4.422036 1.244278
C 2.244906 -3.929607 2.481804
C 2.252497 -4.791325 3.597399
H 1.711870 -4.941243 6.952600
H 2.463628 -7.249823 6.590875
H 3.021610 -8.051036 4.329631
H 3.170267 -7.588383 1.860234
H 2.564395 -3.796710 0.353745
H 1.995727 -2.890422 2.623990
C 0.394591 -0.660422 5.378430
C 0.221498 0.150954 4.250465
C -0.322126 1.408903 4.378798
C -0.701909 1.887304 5.638204
C -0.529913 1.075725 6.766247
C 0.010715 -0.184512 6.637631
H 0.521756 -0.217309 3.282324
H -0.447043 2.040393 3.514037
H -0.822157 1.445476 7.737872
H 0.144799 -0.809584 7.507792
C -1.224918 3.186234 5.782445
C -1.647684 4.313533 5.906884
C -2.054768 5.642614 6.120550
C -2.044409 6.166475 7.401678
C -2.371500 7.505371 7.636224
C -2.694565 8.346209 6.599806
C -2.728570 7.855613 5.282314
C -3.037124 8.669575 4.168761
C -3.073311 8.124981 2.918212
N -2.850579 6.804935 2.701337
C -2.535540 6.017976 3.711149
C -2.432924 6.484059 5.031006
H -1.767303 5.532559 8.229972
H -2.352877 7.879309 8.648592
H -2.923615 9.384443 6.782091
H -3.239135 9.717988 4.319484
H -3.284656 8.728257 2.037266
H -2.361625 4.967010 3.490691
