336
cid:69, pot: -287.993787112352
C -3.311667 -0.486504 2.941567
C -4.649080 -0.712277 2.412054
C -2.829496 0.808571 3.088891
C -1.565162 1.039184 3.631037
H -3.425397 1.661318 2.801681
C -0.781502 -0.041973 4.016159
C -1.252035 -1.347498 3.874353
H 0.198216 0.104184 4.444691
C -2.513753 -1.561793 3.332581
C -0.445341 -2.476260 4.316219
H -2.908301 -2.559614 3.216013
C -1.079259 2.398527 3.821656
H -0.819535 -3.472115 4.031995
H -5.151165 0.171046 1.987731
H -0.020808 2.492270 4.110184
C -3.847614 -2.566308 -1.739812
C -4.642786 -3.083242 -0.635062
C -2.835275 -3.342002 -2.292079
C -2.092111 -2.874666 -3.376056
H -2.612168 -4.324646 -1.905505
C -2.365359 -1.615588 -3.897077
C -3.378355 -0.825619 -3.353277
H -1.812344 -1.228612 -4.739176
C -4.110600 -1.304598 -2.273519
C -3.688709 0.476041 -3.927307
H -4.904679 -0.719804 -1.834973
C -1.059823 -3.706649 -3.977876
H -4.390073 1.098696 -3.350442
H -4.274606 -4.013654 -0.175476
H -0.418917 -3.210185 -4.722917
C 2.984009 -2.603619 1.227282
C 3.051190 -2.514872 2.679023
C 3.635304 -1.660650 0.441063
C 3.611732 -1.756284 -0.950287
H 4.183306 -0.845226 0.887744
C 2.919613 -2.801807 -1.549598
C 2.261091 -3.755761 -0.773566
H 2.888144 -2.906735 -2.623242
C 2.293415 -3.647620 0.611686
C 1.570798 -4.872402 -1.403605
H 1.799136 -4.373441 1.239228
C 4.329268 -0.789733 -1.769529
H 0.950802 -5.490167 -0.735644
H 3.481124 -1.584572 3.081686
H 4.135635 -0.842406 -2.852159
C -0.297070 3.859425 -0.487463
C -1.129877 4.449315 0.551099
C -0.837414 3.575630 -1.735987
C -0.041177 3.046843 -2.751928
H -1.876918 3.770438 -1.950823
C 1.302430 2.794335 -2.502746
C 1.858856 3.073888 -1.254445
H 1.945695 2.391464 -3.270032
C 1.053326 3.600658 -0.251891
C 3.275967 2.845811 -1.009387
H 1.455796 3.833554 0.722022
C -0.601230 2.788966 -4.071034
H 3.602512 2.943966 0.037616
H -2.209973 4.478057 0.338853
H 0.046403 2.231658 -4.765467
C -6.526124 -2.021073 1.953778
C -6.465709 -3.066014 0.821275
N -5.203779 -1.842947 2.465294
N -5.700861 -2.514978 -0.252646
C -7.879271 -3.366995 0.315912
H -6.005862 -3.985783 1.226270
C -8.770108 -3.865402 1.447231
H -7.817068 -4.113722 -0.478599
H -8.292301 -2.453268 -0.114911
C -8.828610 -2.834380 2.569232
H -8.370819 -4.804302 1.837854
H -9.773842 -4.060581 1.064436
C -7.426631 -2.530047 3.082665
H -9.446122 -3.206885 3.389045
H -9.286070 -1.915885 2.194282
H -6.975224 -3.430231 3.503195
H -7.464017 -1.774448 3.870281
H -6.937216 -1.084277 1.535841
C 1.352763 -3.452876 5.438299
C 2.771033 -3.341185 4.843023
N 0.598348 -2.319197 5.005303
N 2.668132 -3.457906 3.422560
C 3.646602 -4.481708 5.369175
H 3.195999 -2.367650 5.147757
C 3.710137 -4.465059 6.891447
H 4.647523 -4.381315 4.943885
H 3.227408 -5.426689 5.019295
C 2.308169 -4.572550 7.481690
H 4.174158 -3.534305 7.225965
H 4.329007 -5.293764 7.241490
C 1.428736 -3.439527 6.967459
H 2.356171 -4.533295 8.571769
H 1.868175 -5.531590 7.198900
H 1.832040 -2.475804 7.283203
H 0.417506 -3.527825 7.370420
H 0.907620 -4.402775 5.090534
C -1.326694 4.717549 3.907626
C -1.486786 5.513591 2.596630
N -1.834477 3.399326 3.692161
N -0.637900 4.922753 1.610645
C -1.053224 6.965772 2.814154
H -2.550938 5.477751 2.300437
C -1.861935 7.616922 3.929382
H -1.181319 7.514741 1.878819
H 0.009058 6.973753 3.064352
C -1.706857 6.829289 5.225914
H -2.916569 7.644292 3.645468
H -1.525834 8.645780 4.072988
C -2.139411 5.382678 5.021782
H -2.308980 7.283883 6.015159
H -0.661827 6.855218 5.543142
H -3.195509 5.339486 4.749704
H -2.007055 4.810823 5.942858
H -0.254612 4.708579 4.175879
C 0.080142 -5.715942 -4.308793
C 1.024254 -6.245072 -3.210242
N -0.931682 -4.925238 -3.682184
N 1.701832 -5.128235 -2.630870
C 2.062679 -7.186270 -3.826698
H 0.415119 -6.789981 -2.466421
C 1.388984 -8.347023 -4.548177
H 2.715858 -7.556867 -3.033720
H 2.675291 -6.612760 -4.524517
C 0.452827 -7.825291 -5.633001
H 0.817344 -8.939146 -3.829848
H 2.149154 -8.995314 -4.988775
C -0.587895 -6.890138 -5.029600
H -0.047757 -8.659080 -6.129270
H 1.033805 -7.286239 -6.384985
H -1.206597 -7.428548 -4.309638
H -1.244969 -6.496692 -5.808160
H 0.681350 -5.126325 -5.024450
C -3.547984 2.125923 -5.572045
C -2.252658 2.951128 -5.712017
N -3.204855 0.849220 -5.029786
N -1.744071 3.205612 -4.401274
C -2.559727 4.289282 -6.389967
H -1.540132 2.371324 -6.326393
C -3.200513 4.076271 -7.755864
H -1.630672 4.855013 -6.487809
H -3.230769 4.856600 -5.742686
C -4.480067 3.258026 -7.619301
H -2.500456 3.548750 -8.407818
H -3.420751 5.043541 -8.212045
C -4.185274 1.921752 -6.949203
H -4.921536 3.085209 -8.602854
H -5.203847 3.814102 -7.018956
H -3.498584 1.335515 -7.562337
H -5.104040 1.343727 -6.829033
H -4.240480 2.681700 -4.914141
C 5.843472 0.953922 -2.106075
C 5.466638 2.383866 -1.668406
N 5.141636 0.033446 -1.268394
N 4.078654 2.581784 -1.944636
C 6.279432 3.403913 -2.470391
H 5.691953 2.484412 -0.591145
C 7.774985 3.173697 -2.291856
H 6.005574 4.408561 -2.141127
H 6.006289 3.310219 -3.522836
C 8.148788 1.759204 -2.721632
H 8.042208 3.316348 -1.242135
H 8.331245 3.904438 -2.882401
C 7.348206 0.735135 -1.926550
H 9.216262 1.589860 -2.567006
H 7.939757 1.636654 -3.786895
H 7.582942 0.815388 -0.863720
H 7.597032 -0.278162 -2.249128
H 5.569062 0.836384 -3.170107
C -3.717071 -2.638642 -1.811370
C -4.521957 -3.167704 -0.719452
C -2.699975 -3.407691 -2.364070
C -1.947553 -2.927181 -3.435787
H -2.480026 -4.394818 -1.987384
C -2.216602 -1.662159 -3.944252
C -3.234337 -0.878702 -3.399797
H -1.656280 -1.265150 -4.776873
C -3.975626 -1.370682 -2.332183
C -3.540761 0.429595 -3.960702
H -4.773620 -0.791179 -1.893491
C -0.909731 -3.751553 -4.038889
H -4.249094 1.043785 -3.383171
H -4.159412 -4.104129 -0.267819
H -0.264167 -3.246287 -4.773932
C -3.209559 -0.617431 2.898803
C -4.543171 -0.833713 2.356033
C -2.727773 0.675085 3.068471
C -1.467567 0.897200 3.623798
H -3.320983 1.532207 2.788931
C -0.687410 -0.189858 3.999190
C -1.157582 -1.492893 3.834953
H 0.288956 -0.050590 4.437394
C -2.415163 -1.698787 3.280456
C -0.354112 -2.628007 4.266556
H -2.809226 -2.694560 3.146521
C -0.982972 2.253456 3.837657
H -0.724717 -3.619618 3.963456
H -5.039864 0.056443 1.939752
H 0.073735 2.343122 4.133700
C 0.091074 2.994769 -2.716704
C -0.457845 2.752595 -4.043326
C 1.433551 2.741009 -2.461531
C 1.981216 3.005527 -1.206280
H 2.082434 2.348957 -3.229595
C 1.168096 3.518247 -0.202682
C -0.181067 3.777993 -0.443838
H 1.563560 3.739355 0.776862
C -0.712799 3.509526 -1.699607
C -1.020668 4.352862 0.597711
H -1.751237 3.705740 -1.918832
C 3.397081 2.776716 -0.954900
H -2.099534 4.383302 0.380390
H 0.197448 2.206039 -4.739364
H 3.716790 2.862217 0.095263
C 2.391950 -3.828671 -0.812906
C 1.707375 -4.938477 -1.460832
C 2.415071 -3.738704 0.573728
C 3.100377 -2.702338 1.207780
H 1.917787 -4.473318 1.188321
C 3.755500 -1.748095 0.438744
C 3.740831 -1.825175 -0.954098
H 4.299432 -0.937986 0.899720
C 3.054077 -2.863481 -1.571892
C 4.462017 -0.846691 -1.755804
H 3.029796 -2.953993 -2.647062
C 3.156641 -2.634345 2.661201
H 4.274977 -0.885078 -2.840241
H 1.084510 -5.565038 -0.803624
H 3.581094 -1.709241 3.081094
C -6.356672 -3.162047 0.722781
C -6.420567 -2.130076 1.866994
N -5.581824 -2.601232 -0.338837
N -5.101349 -1.963290 2.390284
C -7.331787 -2.647572 2.983227
H -6.824432 -1.186564 1.456997
C -8.731463 -2.938626 2.456002
H -7.371051 -1.901125 3.779464
H -6.888061 -3.554979 3.396529
C -8.669731 -3.956798 1.322531
H -9.181295 -2.013350 2.088400
H -9.357072 -3.317305 3.266772
C -7.768017 -3.450004 0.203671
H -9.671600 -4.142188 0.930012
H -8.278347 -4.902258 1.705151
H -8.173203 -2.529344 -0.219615
H -7.703663 -4.187928 -0.598824
H -5.903945 -4.088525 1.120098
C -3.387503 2.100323 -5.582800
C -2.093363 2.931186 -5.697832
N -3.046613 0.817583 -5.053447
N -1.598980 3.170157 -4.378574
C -2.397363 4.277098 -6.361515
H -1.372678 2.361637 -6.312136
C -3.022168 4.079862 -7.737152
H -1.469139 4.846994 -6.441658
H -3.077313 4.833851 -5.714484
C -4.300527 3.256015 -7.625471
H -2.313179 3.562967 -8.387994
H -3.240485 5.052329 -8.183279
C -4.008853 1.912112 -6.969383
H -4.730319 3.094486 -8.616107
H -5.032781 3.802050 -7.026302
H -3.313518 1.335994 -7.582347
H -4.927009 1.329665 -6.866993
H -4.088918 2.645486 -4.925415
C 0.235661 -5.755509 -4.383707
C 1.174494 -6.292678 -3.284669
N -0.782010 -4.973137 -3.755763
N 1.846051 -5.180292 -2.690081
C 2.218865 -7.225600 -3.903664
H 0.562179 -6.846324 -2.549835
C 1.552258 -8.381125 -4.639850
H 2.868224 -7.601912 -3.110361
H 2.834202 -6.644175 -4.592462
C 0.621299 -7.851515 -5.725324
H 0.977774 -8.981278 -3.930341
H 2.316541 -9.023565 -5.081808
C -0.425091 -6.924382 -5.119506
H 0.125634 -8.681813 -6.232221
H 1.205507 -7.304269 -6.468714
H -1.046916 -7.470936 -4.408288
H -1.078591 -6.525222 -5.898337
H 0.839637 -5.157418 -5.090028
C -1.232149 4.570825 3.956514
C -1.387965 5.387094 2.657465
N -1.737945 3.255871 3.718495
N -0.534323 4.811919 1.666208
C -0.956408 6.835991 2.899284
H -2.450807 5.354813 2.356401
C -1.769659 7.469047 4.021577
H -1.081470 7.399504 1.972168
H 0.104974 6.840782 3.153454
C -1.618861 6.661411 5.306256
H -2.823218 7.500155 3.734293
H -1.434758 8.495793 4.182582
C -2.049793 5.217802 5.077858
H -2.224253 7.103148 6.100241
H -0.574976 6.682925 5.627778
H -3.104730 5.178323 4.801112
H -1.920386 4.631755 5.990304
H -0.161183 4.558686 4.228833
C 1.435527 -3.619689 5.389351
C 2.859314 -3.495177 4.809904
N 0.683168 -2.480580 4.967431
N 2.769781 -3.589483 3.387014
C 3.732503 -4.642252 5.325957
H 3.279161 -2.525739 5.134202
C 3.780913 -4.650697 6.848818
H 4.737314 -4.532574 4.912305
H 3.318895 -5.582246 4.956320
C 2.373444 -4.770963 7.423248
H 4.239524 -3.724718 7.203318
H 4.398199 -5.483794 7.191142
C 1.496527 -3.631431 6.919250
H 2.410500 -4.749741 8.514301
H 1.938373 -5.726071 7.120168
H 1.894467 -2.672121 7.254905
H 0.481528 -3.728486 7.310645
H 0.995953 -4.564571 5.021723
C 5.592541 2.327241 -1.606312
C 5.975074 0.903962 -2.060299
N 4.205961 2.525884 -1.888422
N 5.270060 -0.028930 -1.238938
C 7.479251 0.685989 -1.874699
H 5.707262 0.799719 -3.127410
C 8.282039 1.722053 -2.651679
H 7.732103 -0.322449 -2.208882
H 7.707480 0.753103 -0.809615
C 7.902854 3.130123 -2.205878
H 8.079502 1.612888 -3.719742
H 9.349058 1.552921 -2.493160
C 6.407814 3.359399 -2.390089
H 8.460863 3.869576 -2.783722
H 8.163636 3.259672 -1.152926
H 6.140914 3.278930 -3.445337
H 6.129877 4.359075 -2.049417
H 5.811196 2.414226 -0.526574
