308
cid:57, pot: -183.3585310605738
Pd -1.545596 4.343492 -0.855135
Pd 1.540889 -4.277591 0.823610
C 6.224943 -0.388805 0.257886
C 6.433532 -1.570800 0.409936
C 6.771958 -2.936815 0.460483
C 8.104126 -3.307859 0.421421
C 8.477056 -4.654064 0.348282
C 7.530456 -5.645659 0.278975
C 6.163636 -5.316313 0.327446
C 5.139205 -6.285050 0.231499
C 3.832538 -5.902255 0.315436
N 3.474334 -4.613570 0.537132
C 4.399452 -3.675614 0.596386
C 5.768886 -3.953157 0.461587
H 8.867079 -2.544596 0.431602
H 9.526278 -4.906126 0.322514
H 7.820725 -6.680330 0.185158
H 5.402780 -7.320685 0.087993
H 3.018769 -6.616579 0.208680
H 4.066453 -2.655442 0.771360
C 5.976736 0.973310 -0.016716
C 7.046157 1.859376 -0.182584
C 6.797434 3.174247 -0.530825
C 5.501135 3.621665 -0.722336
C 4.422223 2.749921 -0.554765
C 4.671071 1.427650 -0.190932
H 8.058360 1.510914 -0.046311
H 7.623607 3.855921 -0.665116
H 5.336278 4.640369 -1.035887
H 3.856072 0.743789 -0.016457
C 3.043838 3.200186 -0.769694
C 2.631019 4.503786 -0.475713
C 1.307465 4.855802 -0.644243
N 0.389853 3.982138 -1.068503
C 0.768668 2.740003 -1.394469
C 2.074305 2.321592 -1.272127
H 3.330024 5.229132 -0.092430
H 0.953915 5.860108 -0.429778
H -0.019775 2.084202 -1.760940
H 2.353944 1.325779 -1.575742
C 1.604743 -0.964517 5.941077
C 1.916500 -2.132870 5.978601
C 2.173998 -3.508181 6.137057
C 2.457872 -4.006285 7.396050
C 2.599269 -5.380950 7.613797
C 2.426852 -6.278997 6.590154
C 2.148516 -5.817800 5.290526
C 1.930947 -6.688720 4.199154
C 1.694129 -6.175547 2.957341
N 1.705740 -4.841410 2.717397
C 1.870289 -3.995964 3.716121
C 2.060374 -4.417086 5.041487
H 2.555802 -3.323656 8.226183
H 2.823817 -5.732976 8.609053
H 2.499683 -7.340320 6.768867
H 1.950144 -7.754501 4.361236
H 1.485637 -6.816324 2.103320
H 1.869627 -2.934675 3.478092
C 1.145262 0.369882 5.911845
C 1.096754 1.117849 7.092694
C 0.568626 2.395567 7.071943
C 0.081998 2.940068 5.895545
C 0.129433 2.207716 4.706555
C 0.674118 0.924815 4.723748
H 1.463134 0.691522 8.013896
H 0.525296 2.969845 7.984862
H -0.365149 3.921340 5.914898
H 0.760712 0.353192 3.813702
C -0.398235 2.760811 3.455689
C -0.337351 4.126693 3.160764
C -0.804488 4.585011 1.945926
N -1.304917 3.760064 1.021690
C -1.407429 2.453387 1.295443
C -0.981167 1.925421 2.493021
H 0.095007 4.822375 3.861159
H -0.776998 5.639372 1.686748
H -1.847755 1.837571 0.512484
H -1.109365 0.874664 2.696324
C -6.228894 0.453267 -0.294224
C -6.436988 1.636115 -0.439733
C -6.775355 3.002459 -0.482479
C -8.107464 3.373239 -0.436569
C -8.480259 4.719089 -0.355371
C -7.533419 5.710309 -0.285033
C -6.166805 5.381388 -0.340464
C -5.142051 6.349723 -0.244088
C -3.835609 5.967467 -0.334793
N -3.478169 4.679782 -0.563584
C -4.403477 3.742016 -0.623754
C -5.772453 4.018839 -0.482578
H -8.870333 2.609948 -0.447352
H -9.529286 4.970903 -0.324265
H -7.823308 6.744525 -0.185163
H -5.405113 7.384690 -0.095015
H -3.021646 6.681436 -0.227910
H -4.070953 2.722686 -0.804812
C -5.980865 -0.910310 -0.027022
C -7.050043 -1.798545 0.127781
C -6.801684 -3.115302 0.469065
C -5.505779 -3.562505 0.664483
C -4.427108 -2.688584 0.508074
C -4.675618 -1.364338 0.151092
H -8.061977 -1.450462 -0.011478
H -7.627698 -3.798752 0.594871
H -5.341469 -4.582918 0.972571
H -3.860407 -0.678484 -0.014624
C -3.049262 -3.138463 0.726899
C -2.633494 -4.439669 0.426619
C -1.310238 -4.791044 0.598916
N -0.395453 -3.918882 1.032508
C -0.777557 -2.679429 1.364805
C -2.083123 -2.261864 1.239421
H -3.329804 -5.163513 0.035715
H -0.954436 -5.793629 0.379633
H 0.008363 -2.024978 1.738980
H -2.365320 -1.268525 1.548428
C -1.585366 1.037241 -5.979776
C -1.901244 2.204584 -6.015912
C -2.163244 3.579226 -6.172699
C -2.443962 4.078715 -7.431885
C -2.589850 5.453155 -7.647599
C -2.425027 6.349828 -6.621553
C -2.150041 5.887199 -5.321723
C -1.939775 6.756816 -4.227960
C -1.705418 6.242302 -2.986275
N -1.712793 4.907679 -2.748698
C -1.870616 4.063411 -3.749588
C -2.057439 4.486378 -5.074887
H -2.535957 3.397205 -8.263759
H -2.811777 5.806222 -8.643107
H -2.501286 7.411170 -6.798480
H -1.962468 7.822923 -4.388080
H -1.502347 6.882399 -2.130462
H -1.866682 3.001829 -3.513719
C -1.121157 -0.295518 -5.951097
C -1.060421 -1.039481 -7.133881
C -0.528080 -2.315415 -7.112880
C -0.049154 -2.862161 -5.934302
C -0.108746 -2.133700 -4.743488
C -0.657816 -0.852736 -4.761014
H -1.420715 -0.611365 -8.056685
H -0.475379 -2.886567 -8.027291
H 0.401510 -3.841692 -5.953083
H -0.753888 -0.284297 -3.849871
C 0.411347 -2.688685 -3.490274
C 0.353200 -4.055570 -3.199544
C 0.813746 -4.515682 -1.982892
N 1.305057 -3.691609 -1.053046
C 1.404502 -2.383773 -1.322209
C 0.984310 -1.853895 -2.521097
H -0.071871 -4.750784 -3.904969
H 0.788173 -5.570841 -1.726702
H 1.836907 -1.768390 -0.534408
H 1.109546 -0.802111 -2.720503
Pd 4.679681 1.916136 -0.518074
Pd -4.088338 -1.109845 0.277417
C -2.160736 1.306765 5.552562
C -3.255604 0.796734 5.483890
C -4.489515 0.119778 5.532955
C -5.192557 0.075775 6.723593
C -6.359639 -0.685693 6.845476
C -6.823340 -1.439104 5.795976
C -6.147534 -1.416043 4.562382
C -6.554716 -2.189806 3.452163
C -5.872721 -2.098911 2.274227
N -4.830810 -1.246764 2.111296
C -4.398572 -0.534767 3.133709
C -4.990270 -0.598659 4.405060
H -4.824992 0.625604 7.576427
H -6.883554 -0.693658 7.789160
H -7.702760 -2.054369 5.904238
H -7.401675 -2.849960 3.550020
H -6.136400 -2.707390 1.411625
H -3.557753 0.132079 2.958597
C -0.846791 1.812616 5.653918
C -0.389840 2.333483 6.868881
C 0.922844 2.752651 6.982941
C 1.791263 2.657207 5.908669
C 1.347976 2.144388 4.686955
C 0.021464 1.733768 4.566997
H -1.060546 2.397665 7.711849
H 1.276697 3.148439 7.922860
H 2.821313 2.950572 6.036112
H -0.357775 1.371126 3.625174
C 2.256414 2.019466 3.543271
C 3.291587 2.930774 3.310435
C 4.080218 2.796342 2.186139
N 3.879629 1.824645 1.291255
C 2.920794 0.916948 1.513116
C 2.107331 0.973752 2.622097
H 3.462638 3.753527 3.985318
H 4.895054 3.483401 1.977083
H 2.825881 0.133695 0.762366
H 1.367383 0.208022 2.790035
C -3.993363 4.926585 -0.572387
C -5.052984 4.346228 -0.507839
C -6.322382 3.739894 -0.568378
C -7.442758 4.526120 -0.769338
C -8.704378 3.951281 -0.956146
C -8.862353 2.588068 -0.979270
C -7.753203 1.748764 -0.767844
C -7.841131 0.338861 -0.808037
C -6.732197 -0.418011 -0.565324
N -5.540744 0.138524 -0.236098
C -5.410289 1.450804 -0.222690
C -6.471857 2.320557 -0.517001
H -7.338129 5.599901 -0.798301
H -9.556412 4.596408 -1.107177
H -9.830102 2.147489 -1.160669
H -8.787143 -0.125614 -1.035559
H -6.755952 -1.503966 -0.625059
H -4.435814 1.853705 0.043962
C -2.757172 5.585322 -0.747048
C -2.728479 6.959518 -1.005408
C -1.520395 7.583165 -1.257378
C -0.339493 6.860266 -1.262293
C -0.351137 5.488039 -0.999614
C -1.566963 4.861066 -0.732055
H -3.648485 7.523518 -1.015312
H -1.499527 8.642564 -1.463332
H 0.583951 7.361847 -1.505224
H -1.600803 3.811858 -0.485932
C 0.886911 4.703312 -1.019214
C 2.115725 5.240220 -0.621605
C 3.240166 4.440484 -0.612785
N 3.195879 3.150801 -0.959134
C 2.038580 2.623814 -1.378472
C 0.879554 3.364346 -1.433344
H 2.189355 6.265051 -0.296318
H 4.210653 4.826455 -0.314762
H 2.073088 1.575568 -1.671881
H -0.028065 2.920056 -1.808382
C 2.753064 -0.505118 -5.791340
C 3.845226 0.010830 -5.724001
C 5.075417 0.694309 -5.775273
C 5.774869 0.743807 -6.967952
C 6.937600 1.511575 -7.092153
C 7.400399 2.265636 -6.042802
C 6.728407 2.237122 -4.807258
C 7.134981 3.011022 -3.696927
C 6.456852 2.914961 -2.517109
N 5.419549 2.057545 -2.352609
C 4.987902 1.344846 -3.374891
C 5.575841 1.413538 -4.647816
H 5.407582 0.193368 -7.820503
H 7.458481 1.523815 -8.037310
H 8.276256 2.885673 -6.152610
H 7.978379 3.675477 -3.796110
H 6.720192 3.523317 -1.654406
H 4.151090 0.673458 -3.198245
C 1.441748 -1.017715 -5.890957
C 0.988442 -1.548838 -7.102789
C -0.322288 -1.974817 -7.215472
C -1.192257 -1.876102 -6.142689
C -0.752714 -1.353011 -4.924119
C 0.571827 -0.935675 -4.805517
H 1.660252 -1.615581 -7.944696
H -0.673359 -2.378490 -8.153041
H -2.220776 -2.174880 -6.269353
H 0.948217 -0.564655 -3.865758
C -1.662675 -1.224745 -3.782044
C -2.693638 -2.139393 -3.544122
C -3.483643 -2.001669 -2.421095
N -3.287953 -1.023626 -1.531909
C -2.333387 -0.112671 -1.759256
C -1.519155 -0.172448 -2.867418
H -2.860524 -2.967146 -4.213923
H -4.295317 -2.691327 -2.208175
H -2.242561 0.675617 -1.013381
H -0.783104 0.595878 -3.039810
C 4.586074 -4.118709 0.357670
C 5.645483 -3.538408 0.288662
C 6.914982 -2.931751 0.344367
C 8.035572 -3.716944 0.548612
C 9.297386 -3.141182 0.730549
C 9.455466 -1.777879 0.745584
C 8.346202 -0.939768 0.530716
C 8.434090 0.470216 0.563118
C 7.325017 1.225905 0.317891
N 6.133010 0.667820 -0.006758
C 6.002376 -0.644546 -0.013017
C 7.064422 -1.512766 0.284687
H 7.930812 -4.790605 0.583848
H 10.149577 -3.785501 0.884293
H 10.423465 -1.336335 0.923246
H 9.380617 0.936012 0.786842
H 7.348994 2.312158 0.371879
H 5.027780 -1.048970 -0.275988
C 3.350006 -4.776234 0.537218
C 3.321646 -6.148051 0.808375
C 2.113463 -6.769875 1.064540
C 0.932082 -6.047557 1.061165
C 0.943660 -4.677825 0.785847
C 2.159391 -4.052789 0.513896
H 4.241972 -6.711437 0.824786
H 2.092877 -7.827271 1.280275
H 0.008676 -6.547099 1.307526
H 2.193199 -3.005940 0.258003
C -0.294736 -3.893357 0.797297
C -1.523160 -4.433873 0.403320
C -2.647822 -3.634583 0.387444
N -2.604152 -2.342185 0.723423
C -1.447242 -1.811263 1.138738
C -0.287941 -2.550880 1.200036
H -1.596116 -5.461466 0.086452
H -3.618123 -4.023131 0.091947
H -1.482073 -0.760445 1.423189
H 0.619550 -2.103361 1.571356
