308
cid:69, pot: -201.3667744561189
Pd -2.678676 3.690470 0.718278
Pd 2.617615 -3.782305 -0.947423
C 5.991289 1.315327 -1.072005
C 6.495987 0.247952 -1.336074
C 7.139349 -0.925280 -1.775044
C 8.467235 -0.868104 -2.158868
C 9.107414 -1.981506 -2.713125
C 8.426494 -3.154571 -2.923791
C 7.077920 -3.262708 -2.538211
C 6.311876 -4.430664 -2.753090
C 5.016571 -4.480979 -2.328110
N 4.440749 -3.454119 -1.655686
C 5.111204 -2.334218 -1.467463
C 6.428682 -2.155586 -1.917900
H 9.012787 0.055862 -2.042980
H 10.145333 -1.900712 -2.998191
H 8.912494 -3.999677 -3.385529
H 6.760498 -5.271808 -3.256895
H 4.387751 -5.350094 -2.510045
H 4.608740 -1.535625 -0.927061
C 5.377328 2.568366 -0.859137
C 6.138753 3.739910 -0.922415
C 5.516592 4.967993 -0.793004
C 4.146996 5.050402 -0.606815
C 3.373798 3.888854 -0.535816
C 4.001689 2.650016 -0.653006
H 7.204647 3.679770 -1.079906
H 6.103930 5.872000 -0.848525
H 3.680157 6.021140 -0.552238
H 3.435464 1.737030 -0.562585
C 1.920463 3.955861 -0.356354
C 1.308044 4.962111 0.397716
C -0.059590 4.942759 0.580245
N -0.829471 3.977240 0.069997
C -0.271130 3.025858 -0.688806
C 1.083222 2.990527 -0.932129
H 1.895946 5.737455 0.861239
H -0.567823 5.710666 1.156127
H -0.954820 2.284209 -1.099345
H 1.497585 2.231546 -1.575771
C 3.206872 -2.012269 4.856779
C 3.776677 -3.007767 4.472126
C 4.373189 -4.240688 4.145060
C 5.070649 -4.937419 5.115561
C 5.572732 -6.218764 4.864217
C 5.358539 -6.836417 3.657284
C 4.664509 -6.161747 2.636330
C 4.384618 -6.750344 1.382478
C 3.732287 -6.030345 0.424566
N 3.377789 -4.735998 0.615941
C 3.590345 -4.162790 1.784512
C 4.198685 -4.832859 2.857359
H 5.215391 -4.490852 6.087323
H 6.114675 -6.731029 5.644449
H 5.714671 -7.839009 3.479437
H 4.687146 -7.768484 1.197015
H 3.467988 -6.464557 -0.537215
H 3.287178 -3.124042 1.894432
C 2.462251 -0.908982 5.326773
C 2.542521 -0.534258 6.671894
C 1.748435 0.494560 7.143989
C 0.870451 1.153787 6.300328
C 0.783553 0.795217 4.952677
C 1.593502 -0.232634 4.472764
H 3.216223 -1.054719 7.335106
H 1.805921 0.778890 8.183674
H 0.230399 1.922781 6.703057
H 1.576819 -0.502607 3.429082
C -0.153717 1.469332 4.049292
C -0.482962 2.821338 4.190706
C -1.332573 3.416600 3.280801
N -1.846971 2.745177 2.246505
C -1.575739 1.440975 2.111072
C -0.752983 0.773958 2.990163
H -0.059310 3.410690 4.987351
H -1.612997 4.462572 3.363918
H -2.045909 0.943937 1.263703
H -0.582145 -0.283897 2.873480
C -6.052521 -1.407043 0.837784
C -6.555304 -0.340402 1.108142
C -7.196723 0.831165 1.554489
C -8.522771 0.772019 1.944616
C -9.160716 1.883081 2.506264
C -8.479225 3.055609 2.717732
C -7.132692 3.165849 2.325823
C -6.366145 4.333419 2.540920
C -5.072876 4.385889 2.109829
N -4.499786 3.361533 1.431225
C -5.170694 2.241984 1.242239
C -6.485973 2.061200 1.698325
H -9.068390 -0.151795 1.828142
H -10.197053 1.800756 2.796203
H -8.963242 3.898865 3.184915
H -6.812732 5.172680 3.049626
H -4.443761 5.254701 2.291737
H -4.670399 1.445579 0.696501
C -5.440253 -2.659598 0.617580
C -6.203736 -3.830253 0.669806
C -5.583235 -5.058410 0.533371
C -4.213077 -5.141731 0.350965
C -3.437797 -3.981088 0.291114
C -4.064099 -2.742075 0.415259
H -7.270041 -3.769623 0.824344
H -6.172151 -5.961848 0.580385
H -3.747736 -6.112813 0.290848
H -3.495928 -1.829419 0.333605
C -1.984077 -4.048890 0.115503
C -1.371016 -5.050467 -0.644211
C -0.002862 -5.031570 -0.822970
N 0.767051 -4.070637 -0.303988
C 0.207821 -3.124300 0.460458
C -1.147035 -3.088954 0.700664
H -1.958643 -5.821698 -1.114849
H 0.505884 -5.796006 -1.403204
H 0.891385 -2.386595 0.878207
H -1.561881 -2.334373 1.349011
C -3.248646 1.935588 -5.094668
C -3.821748 2.928596 -4.708320
C -4.421921 4.159159 -4.379123
C -5.116777 4.858138 -5.349919
C -5.622523 6.137448 -5.095967
C -5.414553 6.751003 -3.885902
C -4.723296 6.073982 -2.864625
C -4.449373 6.658635 -1.607680
C -3.799082 5.936714 -0.649881
N -3.441083 4.643759 -0.844353
C -3.648128 4.074154 -2.015746
C -4.253805 4.746860 -3.088520
H -5.256633 4.414782 -6.323987
H -6.162303 6.651502 -5.876563
H -5.773464 7.752156 -3.705786
H -4.754770 7.675555 -1.419677
H -3.539275 6.368259 0.314301
H -3.342360 3.036641 -2.128343
C -2.500094 0.835335 -5.565486
C -2.570266 0.468367 -6.913284
C -1.772563 -0.557638 -7.385318
C -0.900761 -1.221741 -6.538988
C -0.823948 -0.870775 -5.188740
C -1.637661 0.154095 -4.708983
H -3.239055 0.992664 -7.578488
H -1.822326 -0.835969 -8.427046
H -0.257656 -1.988248 -6.941248
H -1.628888 0.418083 -3.663627
C 0.107222 -1.549443 -4.282439
C 0.438215 -2.900507 -4.428560
C 1.282494 -3.499809 -3.516377
N 1.789926 -2.833286 -2.475533
C 1.516699 -1.530079 -2.334919
C 0.698885 -0.859193 -3.215689
H 0.020044 -3.486017 -5.231020
H 1.564152 -4.545197 -3.602867
H 1.980737 -1.036988 -1.481789
H 0.526007 0.197751 -3.094532
Pd 2.404708 -4.162428 -0.676566
Pd -2.086824 3.905743 0.505919
C 3.677831 4.894935 -1.275386
C 2.958516 5.829130 -1.004368
C 2.238264 6.967782 -0.594588
C 2.842467 8.210835 -0.654446
C 2.206570 9.348193 -0.145704
C 0.977499 9.258391 0.458795
C 0.319962 8.016907 0.532018
C -0.932031 7.850258 1.165921
C -1.530302 6.624338 1.176034
N -0.982890 5.552675 0.551406
C 0.200821 5.659433 -0.020019
C 0.929144 6.859372 -0.034673
H 3.827317 8.300852 -1.086544
H 2.707230 10.302108 -0.212608
H 0.506039 10.130849 0.883288
H -1.401086 8.697228 1.640630
H -2.475744 6.452905 1.686530
H 0.603364 4.773524 -0.505249
C 4.541607 3.800496 -1.496076
C 5.871192 4.023141 -1.868734
C 6.732436 2.949975 -2.004465
C 6.293936 1.657645 -1.770108
C 4.967249 1.418856 -1.402744
C 4.094888 2.498747 -1.278426
H 6.219520 5.030074 -2.039947
H 7.760189 3.123023 -2.285683
H 6.996169 0.842035 -1.840513
H 3.056632 2.340347 -1.034916
C 4.488420 0.059721 -1.133760
C 4.982611 -1.054284 -1.820087
C 4.454039 -2.303282 -1.565780
N 3.463762 -2.488990 -0.688220
C 3.002059 -1.444023 0.009902
C 3.493436 -0.171440 -0.174136
H 5.752949 -0.944069 -2.565792
H 4.817297 -3.189895 -2.077318
H 2.215340 -1.664640 0.729986
H 3.125075 0.643077 0.428309
C -1.877648 2.437935 -5.407747
C -2.477409 3.428062 -5.056020
C -3.297688 4.524060 -4.726459
C -3.955098 5.208475 -5.733021
C -4.871557 6.223143 -5.437095
C -5.170878 6.546679 -4.137260
C -4.518414 5.885327 -3.080733
C -4.800892 6.149227 -1.721419
C -4.110761 5.492906 -0.744453
N -3.116401 4.617526 -1.031918
C -2.847250 4.318825 -2.287949
C -3.538589 4.890591 -3.367371
H -3.769170 4.943595 -6.762614
H -5.363261 6.737454 -6.248681
H -5.905461 7.303765 -3.911957
H -5.565504 6.866545 -1.469892
H -4.328571 5.644240 0.310577
H -2.043632 3.609357 -2.472026
C -1.263092 1.230380 -5.803652
C -1.265571 0.854380 -7.150725
C -0.735373 -0.367838 -7.520813
C -0.207315 -1.225779 -6.570955
C -0.191790 -0.861610 -5.222146
C -0.713684 0.376105 -4.849852
H -1.688255 1.515019 -7.892007
H -0.743588 -0.660450 -8.559798
H 0.159720 -2.191781 -6.879938
H -0.677629 0.700096 -3.822092
C 0.345980 -1.765016 -4.200576
C 1.414436 -2.629938 -4.458756
C 1.912517 -3.422417 -3.444893
N 1.416451 -3.382631 -2.204920
C 0.369857 -2.589742 -1.942485
C -0.193559 -1.785593 -2.907185
H 1.870900 -2.665140 -5.434417
H 2.737621 -4.108615 -3.612133
H -0.005277 -2.621640 -0.920549
H -1.057138 -1.184713 -2.672677
C -3.358522 -5.150675 1.109549
C -2.640924 -6.084298 0.832141
C -1.923574 -7.222129 0.415139
C -2.530618 -8.464218 0.468812
C -1.898085 -9.600267 -0.047068
C -0.669531 -9.509909 -0.652394
C -0.009103 -8.269628 -0.719430
C 1.242677 -8.102442 -1.353588
C 1.843853 -6.877848 -1.357787
N 1.299469 -5.808278 -0.727003
C 0.116084 -5.915341 -0.154765
C -0.614882 -7.113812 -0.145635
H -3.515170 -8.554211 0.901574
H -2.400991 -10.553170 0.014979
H -0.200590 -10.381039 -1.082340
H 1.709329 -8.947892 -1.833282
H 2.789178 -6.706064 -1.868229
H -0.283678 -5.031163 0.335786
C -4.220404 -4.056392 1.337438
C -5.546894 -4.278716 1.720988
C -6.406917 -3.205345 1.863830
C -5.970020 -1.913074 1.625901
C -4.646490 -1.674535 1.247612
C -3.775355 -2.754589 1.116273
H -5.894114 -5.285573 1.894969
H -7.432350 -3.378163 2.153413
H -6.671557 -1.097459 1.701944
H -2.739148 -2.596283 0.863910
C -4.169338 -0.315558 0.974987
C -4.657517 0.798342 1.665625
C -4.130268 2.047256 1.407773
N -3.146452 2.232837 0.522797
C -2.691137 1.187814 -0.179583
C -3.181845 -0.084490 0.007550
H -5.422109 0.688307 2.417257
H -4.488987 2.933829 1.922638
H -1.909946 1.408295 -0.905602
H -2.818910 -0.898693 -0.598392
C 2.218039 -2.681561 5.236744
C 2.813974 -3.673985 4.884870
C 3.630338 -4.772801 4.554845
C 4.290739 -5.455722 5.560555
C 5.203389 -6.473397 5.263596
C 5.496061 -6.801528 3.963411
C 4.840506 -6.141815 2.907906
C 5.116504 -6.410024 1.548231
C 4.424041 -5.754808 0.572304
N 3.432962 -4.876195 0.861332
C 3.169640 -4.573362 2.117661
C 3.864273 -5.143865 3.195802
H 4.109969 -5.187267 6.590225
H 5.697547 -6.986451 6.074520
H 6.227813 -7.561043 3.737083
H 5.878428 -7.130076 1.295385
H 4.637240 -5.909563 -0.483173
H 2.368796 -3.861516 2.303332
C 1.607781 -1.471574 5.631659
C 1.621409 -1.089095 6.976923
C 1.094903 0.135259 7.345356
C 0.559619 0.989071 6.395676
C 0.533204 0.618311 5.048850
C 1.051121 -0.621474 4.678276
H 2.049758 -1.746473 7.717899
H 1.111680 0.432771 8.382784
H 0.195745 1.956639 6.702794
H 1.006597 -0.950510 3.652474
C -0.011560 1.517510 4.027176
C -1.077307 2.384681 4.289092
C -1.581430 3.173486 3.275372
N -1.093920 3.128028 2.032251
C -0.050315 2.332623 1.765748
C 0.518718 1.531681 2.729834
H -1.526810 2.424432 5.267887
H -2.404706 3.861329 3.445258
H 0.317574 2.359414 0.740915
H 1.379602 0.928349 2.492012
