372
cid:69, pot: -256.55067060723303
Pd -4.280730 5.511520 1.009394
Pd 4.414687 -5.162315 -0.789868
C 5.163632 2.510720 -0.666584
C 5.931424 1.583585 -0.787897
C 6.799506 0.478932 -0.869421
C 8.169682 0.634397 -0.747981
C 9.025756 -0.472490 -0.769856
C 8.531306 -1.746190 -0.889181
C 7.140740 -1.947589 -1.020080
C 6.565490 -3.230457 -1.097679
N 5.268864 -3.420419 -1.220306
C 4.432377 -2.356444 -1.320401
C 4.885483 -1.071898 -1.227821
C 6.261045 -0.827976 -1.040096
H 8.581939 1.624922 -0.628694
H 10.088892 -0.312151 -0.677302
H 9.193354 -2.597288 -0.884073
H 7.193598 -4.116455 -1.048606
H 3.382724 -2.597621 -1.476998
H 4.208544 -0.235212 -1.290212
C 4.255749 3.575851 -0.514424
C 4.720802 4.884761 -0.342322
C 3.827992 5.922487 -0.189590
C 2.449930 5.674112 -0.202256
C 1.985837 4.364254 -0.369550
C 2.877755 3.327643 -0.525900
H 5.783383 5.076766 -0.334310
H 4.185846 6.933150 -0.061297
H 0.924071 4.178383 -0.388354
H 2.522801 2.318478 -0.662327
C 1.543748 6.743953 -0.078158
C 0.761857 7.664713 -0.000349
C -0.097645 8.777814 0.000935
C 0.417758 10.043890 -0.216505
C -0.420229 11.160125 -0.295757
C -1.782265 11.031355 -0.179050
C -2.350462 9.766120 0.053405
C -3.744183 9.560582 0.167511
C -4.228528 8.309137 0.414357
N -3.410154 7.241715 0.587062
C -2.105677 7.388174 0.463791
C -1.506659 8.623604 0.172674
H 1.483031 10.167299 -0.338801
H 0.017011 12.132120 -0.466186
H -2.427583 11.891538 -0.264024
H -4.413393 10.398557 0.055294
H -5.296875 8.112667 0.484834
H -1.487571 6.504537 0.606879
C 3.050145 -0.165608 4.928420
C 3.844240 -1.061020 4.751621
C 4.786052 -2.073611 4.487100
C 5.904933 -2.237955 5.284785
C 6.870600 -3.205010 4.981962
C 6.746880 -4.004741 3.875005
C 5.615754 -3.875218 3.040942
C 5.449028 -4.635751 1.867866
N 4.392004 -4.520943 1.091575
C 3.388045 -3.674103 1.431808
C 3.465093 -2.869264 2.532183
C 4.606367 -2.922100 3.357979
H 6.037868 -1.603888 6.148197
H 7.728746 -3.305861 5.628350
H 7.504109 -4.733651 3.634092
H 6.212396 -5.348295 1.564377
H 2.521587 -3.682721 0.774176
H 2.666515 -2.189246 2.781840
C 2.111443 0.868685 5.108160
C 1.934668 1.459510 6.364302
C 0.997695 2.454722 6.534659
C 0.220737 2.885230 5.451735
C 0.413651 2.308179 4.191349
C 1.345234 1.309083 4.022092
H 2.529972 1.124535 7.200650
H 0.853391 2.904462 7.505693
H -0.176123 2.650511 3.356462
H 1.494983 0.858969 3.053592
C -0.767184 3.867462 5.652857
C -1.642787 4.681047 5.844679
C -2.680800 5.574715 6.163041
C -2.825567 6.019685 7.465987
C -3.885889 6.854803 7.830159
C -4.827507 7.243984 6.909664
C -4.718324 6.822121 5.572604
C -5.662146 7.170562 4.579945
C -5.489161 6.739935 3.296929
N -4.414950 6.001198 2.924565
C -3.523365 5.638256 3.825418
C -3.624088 5.997864 5.178304
H -2.111805 5.708225 8.213220
H -3.965572 7.183080 8.855210
H -5.656029 7.871285 7.198654
H -6.514878 7.773071 4.849135
H -6.208496 6.971170 2.513385
H -2.679797 5.042923 3.482181
C -5.087661 -2.151229 0.607418
C -5.851762 -1.218933 0.710826
C -6.712040 -0.106416 0.776092
C -8.074677 -0.241262 0.575645
C -8.918047 0.875877 0.579291
C -8.416745 2.139150 0.761573
C -7.033858 2.318727 0.978929
C -6.450304 3.590876 1.131498
N -5.161642 3.760465 1.340319
C -4.345163 2.683306 1.458846
C -4.805444 1.408027 1.296803
C -6.169243 1.187810 1.016121
H -8.490624 -1.222613 0.405207
H -9.975866 0.731729 0.422031
H -9.067621 2.998694 0.742271
H -7.065096 4.485835 1.071371
H -3.306244 2.903738 1.693917
H -4.142081 0.561965 1.378064
C -4.174698 -3.217112 0.490260
C -2.836337 -2.954902 0.173253
C -1.932913 -3.988621 0.073020
C -2.344447 -5.307829 0.294836
C -3.686468 -5.571039 0.597164
C -4.592291 -4.537476 0.691029
H -2.523168 -1.936548 0.006661
H -0.902452 -3.789776 -0.172910
H -4.005447 -6.589386 0.761647
H -5.625851 -4.740623 0.929154
C -1.421176 -6.369366 0.252018
C -0.627378 -7.283274 0.260076
C 0.240964 -8.385241 0.356872
C -0.270405 -9.635418 0.660161
C 0.571770 -10.738170 0.830152
C 1.934567 -10.610418 0.720138
C 2.499430 -9.361245 0.407025
C 3.893652 -9.156885 0.297414
C 4.376101 -7.921837 -0.024127
N 3.555825 -6.871570 -0.273529
C 2.250192 -7.016752 -0.161375
C 1.651755 -8.234514 0.197346
H -1.336655 -9.756585 0.775436
H 0.137091 -11.697899 1.064437
H 2.582693 -11.458963 0.872662
H 4.564747 -9.982464 0.473231
H 5.444375 -7.724845 -0.094497
H 1.630946 -6.146275 -0.367376
C -2.706527 0.690903 -4.797957
C -3.491880 1.596733 -4.634963
C -4.428158 2.617791 -4.387077
C -5.500928 2.827373 -5.236541
C -6.462995 3.804084 -4.955508
C -6.384478 4.567211 -3.818661
C -5.303932 4.388010 -2.928937
C -5.190258 5.104107 -1.721936
N -4.182860 4.938947 -0.891087
C -3.177786 4.082035 -1.203001
C -3.206239 3.318889 -2.334691
C -4.295905 3.426034 -3.222550
H -5.598520 2.223152 -6.125692
H -7.282977 3.942281 -5.643351
H -7.139817 5.303750 -3.595848
H -5.955190 5.822117 -1.436737
H -2.354617 4.045360 -0.492053
H -2.410636 2.627982 -2.562379
C -1.792676 -0.366794 -4.965153
C -0.802277 -0.594531 -4.001914
C 0.088627 -1.632245 -4.156279
C 0.013343 -2.464530 -5.279093
C -0.977642 -2.237712 -6.242078
C -1.871577 -1.201550 -6.086022
H -0.741943 0.052775 -3.141409
H 0.859111 -1.804067 -3.422024
H -1.034949 -2.879361 -7.108703
H -2.634650 -1.025747 -6.829434
C 0.943273 -3.505273 -5.462163
C 1.761544 -4.381142 -5.630720
C 2.738751 -5.349658 -5.922037
C 2.834509 -5.864980 -7.203082
C 3.842428 -6.772574 -7.542066
C 4.779647 -7.165606 -6.618741
C 4.715851 -6.676475 -5.301821
C 5.656773 -7.027190 -4.307134
C 5.524600 -6.532960 -3.042267
N 4.491657 -5.728777 -2.687969
C 3.607328 -5.359286 -3.593349
C 3.672751 -5.778633 -4.931147
H 2.125928 -5.550359 -7.953914
H 3.886105 -7.153708 -8.550988
H 5.569762 -7.847984 -6.890157
H 6.474648 -7.682783 -4.560179
H 6.244377 -6.764648 -2.259298
H 2.797661 -4.710698 -3.265875
Pd -4.042028 5.625104 1.115126
Pd 4.441020 -5.270623 -0.333573
C 5.388566 2.378524 -0.122759
C 6.136180 1.431605 -0.213055
C 6.977268 0.304262 -0.260009
C 8.343622 0.421886 -0.071390
C 9.169796 -0.707708 -0.059334
C 8.647720 -1.966852 -0.210942
C 7.260244 -2.129778 -0.410224
C 6.655210 -3.396132 -0.524218
N 5.361412 -3.550176 -0.710551
C 4.559599 -2.463411 -0.843853
C 5.041967 -1.192126 -0.720805
C 6.412859 -0.986600 -0.465185
H 8.776066 1.400170 0.074325
H 10.231103 -0.576746 0.085545
H 9.285674 -2.835596 -0.179584
H 7.256242 -4.299097 -0.450753
H 3.512737 -2.675242 -1.052575
H 4.391572 -0.337113 -0.810205
C 4.503251 3.467048 -0.007496
C 4.994334 4.761936 0.195686
C 4.123368 5.822595 0.312081
C 2.741366 5.611749 0.231169
C 2.250987 4.315880 0.032920
C 3.121286 3.256339 -0.087203
H 6.060082 4.924984 0.256331
H 4.501519 6.822502 0.464259
H 1.186785 4.158956 -0.038416
H 2.746464 2.257895 -0.247360
C 1.859256 6.705071 0.318541
C 1.099448 7.646297 0.364685
C 0.271069 8.782249 0.331920
C 0.830193 10.035012 0.148099
C 0.027283 11.173965 0.036001
C -1.341783 11.081558 0.085942
C -1.954325 9.830967 0.282147
C -3.356924 9.662638 0.327367
C -3.886044 8.423463 0.542123
N -3.105954 7.333363 0.746996
C -1.793579 7.445074 0.687895
C -1.148248 8.665366 0.434322
H 1.903073 10.130153 0.078254
H 0.498167 12.134667 -0.106570
H -1.958961 11.959380 -0.024418
H -3.997202 10.519044 0.188564
H -4.961441 8.255668 0.559630
H -1.207019 6.544204 0.854718
C 2.935329 -0.269761 5.345521
C 3.712796 -1.185435 5.201278
C 4.638827 -2.221725 4.975806
C 5.712936 -2.420686 5.825471
C 6.665847 -3.411884 5.563189
C 6.574497 -4.201949 4.446114
C 5.489058 -4.037319 3.559352
C 5.359043 -4.786676 2.374500
N 4.344387 -4.639098 1.548802
C 3.348114 -3.767143 1.845787
C 3.393332 -2.970683 2.954062
C 4.491395 -3.058918 3.833583
H 5.820781 -1.795107 6.698524
H 7.488585 -3.539415 6.249559
H 7.322696 -4.949790 4.237235
H 6.116816 -5.517992 2.103391
H 2.514660 -3.748720 1.147071
H 2.602088 -2.270603 3.169404
C 2.017100 0.788597 5.486621
C 1.795573 1.377162 6.736697
C 0.878431 2.396505 6.868250
C 0.166765 2.853725 5.752009
C 0.405011 2.278480 4.498552
C 1.316541 1.255474 4.367834
H 2.340384 1.021710 7.598585
H 0.699363 2.844708 7.834199
H -0.134252 2.641228 3.638439
H 1.500908 0.806725 3.404623
C -0.803090 3.861315 5.911762
C -1.664843 4.697311 6.066555
C -2.692727 5.617042 6.340359
C -2.888511 6.058717 7.637724
C -3.942464 6.920305 7.955911
C -4.827555 7.339826 6.993635
C -4.665047 6.922402 5.660566
C -5.549964 7.301663 4.625775
C -5.326618 6.873493 3.349811
N -4.255754 6.107878 3.024850
C -3.418962 5.716051 3.965274
C -3.575499 6.070933 5.314011
H -2.220398 5.723972 8.416509
H -4.062913 7.245053 8.978037
H -5.652023 7.987804 7.246429
H -6.398244 7.925573 4.857520
H -6.000618 7.128333 2.533992
H -2.576052 5.099966 3.659179
C -5.033731 -2.010656 0.623139
C -5.776671 -1.058546 0.695827
C -6.608952 0.076492 0.726868
C -7.963393 -0.020261 0.459991
C -8.775725 1.119323 0.430365
C -8.250179 2.367560 0.645124
C -6.875056 2.508320 0.930233
C -6.265719 3.763385 1.119398
N -4.984602 3.896833 1.391363
C -4.203989 2.797292 1.541961
C -4.689955 1.535888 1.349240
C -6.043947 1.354253 1.001590
H -8.396766 -0.989032 0.263050
H -9.828124 1.004723 0.221219
H -8.875991 3.244445 0.600173
H -6.852641 4.674988 1.035676
H -3.172189 2.988235 1.828400
H -4.054257 0.671757 1.456818
C -4.145097 -3.100229 0.543051
C -2.786355 -2.872709 0.292893
C -1.907190 -3.929975 0.229468
C -2.364218 -5.238717 0.422304
C -3.725948 -5.467032 0.657637
C -4.607156 -4.409862 0.714625
H -2.438312 -1.862301 0.148484
H -0.861055 -3.757797 0.035009
H -4.079682 -6.477280 0.799638
H -5.656158 -4.586189 0.901068
C -1.468779 -6.324622 0.417016
C -0.701074 -7.259774 0.457249
C 0.131667 -8.385353 0.588500
C -0.427159 -9.622819 0.858311
C 0.375957 -10.748960 1.061328
C 1.745358 -10.657533 1.018183
C 2.358065 -9.422507 0.741072
C 3.760971 -9.255446 0.700373
C 4.291326 -8.032161 0.410777
N 3.512556 -6.958685 0.129160
C 2.199666 -7.069094 0.177115
C 1.552078 -8.272077 0.498338
H -1.500590 -9.715682 0.921102
H -0.095156 -11.697787 1.267929
H 2.362382 -11.524183 1.196173
H 4.400353 -10.099834 0.902853
H 5.366708 -7.863867 0.393471
H 1.614666 -6.181013 -0.052711
C -2.318016 0.795123 -4.641604
C -3.085768 1.721010 -4.510659
C -4.005236 2.765708 -4.301445
C -5.029570 3.008895 -5.200343
C -5.977609 4.009814 -4.959550
C -5.933863 4.764350 -3.815217
C -4.902872 4.551087 -2.875475
C -4.828730 5.257326 -1.659683
N -3.867557 5.060399 -0.782240
C -2.871891 4.178275 -1.050932
C -2.865878 3.422296 -2.187758
C -3.907964 3.563754 -3.126488
H -5.100089 2.412340 -6.097213
H -6.759260 4.173877 -5.685305
H -6.679103 5.519902 -3.624166
H -5.587017 5.994237 -1.406865
H -2.085420 4.115444 -0.301280
H -2.078992 2.711305 -2.381450
C -1.425836 -0.286040 -4.771594
C -0.489757 -0.545754 -3.763179
C 0.379448 -1.606399 -3.881281
C 0.336358 -2.430231 -5.012055
C -0.600349 -2.171395 -6.020176
C -1.472677 -1.112265 -5.900574
H -0.453835 0.094975 -2.896434
H 1.108498 -1.802971 -3.111839
H -0.632708 -2.806619 -6.892885
H -2.193833 -0.911813 -6.678795
C 1.245864 -3.494828 -5.156946
C 2.047530 -4.391602 -5.291662
C 3.011399 -5.384664 -5.541887
C 3.155264 -5.895430 -6.820263
C 4.153749 -6.828193 -7.116279
C 5.034255 -7.251492 -6.151361
C 4.919814 -6.767926 -4.835802
C 5.801692 -7.149433 -3.799231
C 5.621662 -6.658644 -2.538881
N 4.594686 -5.828693 -2.229582
C 3.765479 -5.430424 -3.174077
C 3.884386 -5.844118 -4.509930
H 2.492660 -5.557709 -7.602317
H 4.236068 -7.204919 -8.124428
H 5.818011 -7.953570 -6.388924
H 6.612989 -7.825559 -4.016824
H 6.296109 -6.913941 -1.723638
H 2.958596 -4.761934 -2.881777
