308
cid:69, pot: -216.9303191154874
Pd 1.126989 3.516235 -3.627973
Pd 0.019098 -2.677073 3.233743
C 5.837315 -0.822645 2.929593
C 5.515554 -1.682000 3.718086
C 5.261200 -2.768181 4.577503
C 6.300799 -3.310800 5.311445
C 6.115888 -4.462846 6.082996
C 4.904906 -5.108622 6.107695
C 3.815833 -4.586559 5.386316
C 2.551860 -5.217308 5.345778
C 1.528139 -4.642727 4.650934
N 1.665902 -3.447456 4.026023
C 2.839217 -2.845609 4.010861
C 3.972825 -3.380497 4.642824
H 7.274112 -2.845939 5.274884
H 6.949321 -4.856058 6.644993
H 4.775467 -6.017566 6.673972
H 2.410970 -6.152577 5.863492
H 0.553617 -5.119579 4.568504
H 2.904751 -1.891121 3.494226
C 6.226203 0.108589 1.942710
C 7.563099 0.508271 1.846515
C 7.951372 1.358218 0.827273
C 7.031709 1.813551 -0.102321
C 5.691670 1.427648 -0.016042
C 5.296655 0.581428 1.018643
H 8.284904 0.145359 2.561946
H 8.984601 1.661041 0.749732
H 7.368129 2.440611 -0.912794
H 4.262315 0.299407 1.132384
C 4.706529 1.885207 -1.000428
C 4.783764 3.145479 -1.602065
C 3.796494 3.545623 -2.479161
N 2.747122 2.770309 -2.767258
C 2.672225 1.544105 -2.234839
C 3.629024 1.067557 -1.367566
H 5.591685 3.818968 -1.366869
H 3.827659 4.515408 -2.967187
H 1.808600 0.950248 -2.530647
H 3.558379 0.062979 -0.983046
C 0.098427 2.990156 5.479902
C -0.097990 2.053798 6.220379
C -0.454660 1.040098 7.130374
C -0.717926 1.370555 8.447661
C -1.191807 0.413582 9.351403
C -1.441798 -0.874584 8.948672
C -1.178017 -1.259302 7.621412
C -1.440106 -2.559798 7.134635
C -1.133641 -2.876310 5.843346
N -0.535071 -1.990813 5.009537
C -0.306571 -0.757178 5.416031
C -0.638917 -0.310434 6.704455
H -0.570258 2.387123 8.778534
H -1.383285 0.707117 10.372213
H -1.842422 -1.600665 9.638567
H -1.885678 -3.290127 7.790846
H -1.356385 -3.855777 5.425679
H 0.172710 -0.079734 4.712931
C 0.227989 4.085841 4.599399
C 0.183900 5.391737 5.098300
C 0.228268 6.460602 4.222244
C 0.310030 6.251538 2.855933
C 0.361398 4.952973 2.342732
C 0.330498 3.875053 3.225877
H 0.106929 5.558043 6.161795
H 0.187461 7.468127 4.607371
H 0.298523 7.101092 2.191602
H 0.409844 2.863815 2.860451
C 0.429057 4.712411 0.898237
C 1.097545 5.580503 0.028834
C 1.172093 5.277919 -1.315409
N 0.636302 4.163816 -1.822246
C -0.040196 3.335944 -1.016125
C -0.174061 3.581183 0.331680
H 1.578404 6.470182 0.401264
H 1.678820 5.932246 -2.018752
H -0.475709 2.459304 -1.493592
H -0.754246 2.913167 0.947308
C -4.689918 1.657633 -3.326408
C -4.369030 2.521541 -4.110181
C -4.116457 3.612710 -4.963861
C -5.157831 4.159279 -5.692491
C -4.974970 5.315928 -6.457741
C -3.764184 5.961998 -6.481375
C -2.673373 5.436069 -5.765535
C -1.409381 6.066710 -5.724335
C -0.383943 5.488471 -5.034950
N -0.520200 4.289792 -4.416207
C -1.693377 3.687569 -4.401910
C -2.828470 4.225696 -5.028519
H -6.130930 3.694016 -5.656333
H -5.809673 5.712159 -7.015512
H -3.636114 6.874205 -7.042704
H -1.269705 7.004758 -6.237304
H 0.590579 5.965091 -4.952165
H -1.757466 2.730115 -3.890480
C -5.077680 0.720798 -2.344453
C -6.412434 0.312666 -2.255411
C -6.800024 -0.542910 -1.240636
C -5.881608 -0.995632 -0.308379
C -4.543730 -0.601213 -0.387432
C -4.149359 0.250644 -1.417787
H -7.133400 0.673422 -2.972787
H -7.831679 -0.852296 -1.168538
H -6.217811 -1.627243 0.498586
H -3.116248 0.539498 -1.525824
C -3.559892 -1.056011 0.599462
C -3.631990 -2.318771 1.196460
C -2.645678 -2.716076 2.075946
N -1.601745 -1.935759 2.370579
C -1.532409 -0.707212 1.842816
C -2.488713 -0.233181 0.973702
H -4.435018 -2.996199 0.955959
H -2.672961 -3.687849 2.560476
H -0.673485 -0.109278 2.143993
H -2.422664 0.773205 0.593348
C 1.073437 -2.154256 -5.872408
C 1.265464 -1.217121 -6.613137
C 1.617473 -0.202142 -7.523506
C 1.884124 -0.532192 -8.840247
C 2.353438 0.426624 -9.744305
C 2.595573 1.716506 -9.342393
C 2.328216 2.100820 -8.015735
C 2.582736 3.403029 -7.529696
C 2.273600 3.718853 -6.238913
N 1.679175 2.830804 -5.404801
C 1.457627 1.595596 -5.810578
C 1.793568 1.149754 -7.098441
H 1.742579 -1.549982 -9.170399
H 2.547705 0.133287 -10.764676
H 2.992727 2.444284 -10.032447
H 3.024856 4.135412 -8.186113
H 2.490836 4.699824 -5.821923
H 0.981663 0.916042 -5.107534
C 0.948839 -3.249828 -4.991072
C 1.005799 -4.555925 -5.488078
C 0.965794 -5.623987 -4.610879
C 0.875794 -5.413999 -3.245174
C 0.811688 -4.115226 -2.733975
C 0.838033 -3.038248 -3.618326
H 1.089257 -4.722876 -6.551010
H 1.016490 -6.631627 -4.994589
H 0.890951 -6.262467 -2.579740
H 0.748781 -2.027162 -3.254631
C 0.736002 -3.873385 -1.290079
C 0.070590 -4.745280 -0.422148
C -0.010946 -4.441837 0.921475
N 0.515033 -3.323416 1.428994
C 1.188126 -2.491320 0.624423
C 1.328439 -2.736930 -0.722668
H -0.402383 -5.638921 -0.795422
H -0.515544 -5.098932 1.623796
H 1.615253 -1.610697 1.102297
H 1.905432 -2.065235 -1.337159
Pd -0.027343 -2.582723 3.941135
Pd 0.622165 2.822783 -3.610432
C 0.049276 -3.049831 -5.212618
C 0.216902 -2.203792 -6.060972
C 0.529634 -1.310329 -7.103629
C 0.645976 -1.789694 -8.396106
C 1.072086 -0.959918 -9.438541
C 1.419906 0.346843 -9.202969
C 1.306303 0.881002 -7.906525
C 1.674932 2.208196 -7.590673
C 1.511802 2.673983 -6.318925
N 0.957873 1.915042 -5.341452
C 0.634362 0.660549 -5.587793
C 0.817278 0.064309 -6.845395
H 0.419315 -2.825071 -8.599479
H 1.148056 -1.367911 -10.434965
H 1.783508 0.973921 -10.001854
H 2.087032 2.839975 -8.361222
H 1.819243 3.677783 -6.033058
H 0.197172 0.087906 -4.773380
C -0.048137 -4.043153 -4.214404
C -0.143111 -5.390911 -4.576024
C -0.156817 -6.363498 -3.593305
C -0.072074 -6.017623 -2.255205
C 0.017540 -4.675291 -1.878129
C 0.018200 -3.693355 -2.867288
H -0.196678 -5.664748 -5.618476
H -0.223484 -7.403904 -3.873337
H -0.041085 -6.797138 -1.510421
H 0.046544 -2.648427 -2.603308
C 0.125265 -4.290000 -0.467872
C -0.501448 -5.012860 0.552413
C -0.412787 -4.570947 1.856601
N 0.244827 -3.454895 2.184045
C 0.886287 -2.768311 1.230299
C 0.860272 -3.158200 -0.089587
H -1.076340 -5.896406 0.327709
H -0.883462 -5.110293 2.673475
H 1.427826 -1.884495 1.564550
H 1.415707 -2.603655 -0.828533
C -5.197357 1.348658 -2.547520
C -4.924736 2.098778 -3.456792
C -4.712094 3.070486 -4.453409
C -5.795363 3.588348 -5.140524
C -5.638193 4.639607 -6.050015
C -4.408534 5.211175 -6.262356
C -3.276229 4.709919 -5.594542
C -1.987738 5.270493 -5.745272
C -0.925781 4.717798 -5.090844
N -1.053062 3.605750 -4.326103
C -2.244571 3.074431 -4.133009
C -3.411001 3.600493 -4.709822
H -6.779765 3.184741 -4.959290
H -6.505845 5.015996 -6.570085
H -4.296780 6.046015 -6.936229
H -1.857984 6.135747 -6.375306
H 0.072113 5.146225 -5.154782
H -2.300263 2.184685 -3.509885
C -5.520311 0.554302 -1.426222
C -6.857643 0.263381 -1.138307
C -7.172467 -0.445102 0.006607
C -6.177973 -0.864466 0.873932
C -4.836932 -0.587120 0.596747
C -4.517614 0.115194 -0.564160
H -7.636235 0.600118 -1.805396
H -8.205291 -0.663586 0.231817
H -6.453110 -1.376755 1.782340
H -3.488909 0.307434 -0.823719
C -3.772367 -1.006793 1.513001
C -3.855996 -2.184615 2.262726
C -2.801665 -2.556082 3.071691
N -1.682090 -1.831624 3.154837
C -1.593316 -0.681430 2.475078
C -2.611723 -0.235640 1.663376
H -4.724171 -2.819634 2.195384
H -2.835599 -3.461323 3.670876
H -0.666978 -0.123641 2.604957
H -2.523314 0.711597 1.156676
C 0.550580 3.289507 5.542563
C 0.376386 2.443985 6.390091
C 0.056048 1.552062 7.431724
C -0.066864 2.033120 8.723096
C -0.500565 1.205402 9.764068
C -0.849271 -0.100957 9.527937
C -0.729097 -0.636882 8.232831
C -1.097992 -1.963862 7.916446
C -0.928562 -2.431492 6.646142
N -0.368106 -1.674543 5.670878
C -0.043749 -0.420244 5.917544
C -0.232526 0.177670 7.173566
H 0.160507 3.068335 8.926463
H -0.581686 1.614763 10.759373
H -1.218647 -0.726483 10.325375
H -1.515377 -2.594094 8.685377
H -1.235956 -3.435134 6.359939
H 0.399118 0.150525 5.104948
C 0.655409 4.282334 4.544798
C 0.761672 5.629173 4.906525
C 0.782593 6.601941 3.923950
C 0.694036 6.256947 2.585821
C 0.593089 4.915594 2.208571
C 0.585304 3.933503 3.197551
H 0.818172 5.902462 5.948980
H 0.857919 7.641696 4.204084
H 0.668705 7.036855 1.841330
H 0.547883 2.888883 2.933277
C 0.481463 4.531232 0.798385
C 1.113569 5.249031 -0.222046
C 1.021172 4.807727 -1.526262
N 0.355025 3.696562 -1.853487
C -0.291857 3.015401 -0.899398
C -0.262667 3.405254 0.420350
H 1.695399 6.128109 0.002353
H 1.495993 5.343268 -2.343280
H -0.840298 2.135841 -1.233409
H -0.822574 2.855374 1.159235
C 5.796827 -1.129366 2.863246
C 5.523210 -1.876002 3.775128
C 5.309219 -2.844252 4.774859
C 6.392306 -3.365051 5.460172
C 6.233242 -4.413082 6.372920
C 5.001730 -4.978674 6.590389
C 3.869747 -4.474366 5.924540
C 2.579438 -5.029102 6.080099
C 1.517994 -4.474040 5.427040
N 1.647594 -3.364581 4.658897
C 2.840723 -2.838493 4.461204
C 4.006601 -3.367893 5.036392
H 7.377955 -2.966117 5.274938
H 7.100782 -4.791870 6.891483
H 4.888308 -5.811183 7.266859
H 2.447742 -5.892249 6.713001
H 0.518603 -4.898384 5.494755
H 2.898629 -1.950920 3.835576
C 6.119764 -0.339159 1.739091
C 7.457800 -0.058835 1.443643
C 7.771821 0.645937 0.296176
C 6.775900 1.071988 -0.566400
C 5.434371 0.805009 -0.281583
C 5.115866 0.106703 0.881840
H 8.237349 -0.400843 2.106973
H 8.805017 0.856243 0.065246
H 7.049900 1.580989 -1.476761
H 4.087193 -0.077388 1.147282
C 4.368145 1.231079 -1.193048
C 4.456066 2.407187 -1.945008
C 3.400526 2.784222 -2.749782
N 2.275936 2.066966 -2.826741
C 2.182476 0.918668 -2.144478
C 3.201526 0.467591 -1.336496
H 5.328881 3.036451 -1.882596
H 3.437485 3.688342 -3.350592
H 1.251651 0.366904 -2.268832
H 3.109233 -0.477886 -0.827334
