372
cid:69, pot: -238.51318514222467
Pd 0.140394 6.978284 0.867470
Pd 0.437199 -6.789575 -0.903500
C 5.744708 -1.197653 -0.792469
C 5.780355 -2.401150 -0.911311
C 5.785989 -3.806233 -0.989944
C 6.962294 -4.525633 -0.867188
C 6.957090 -5.924972 -0.886182
C 5.784110 -6.625894 -1.003900
C 4.563484 -5.930209 -1.136060
C 3.321144 -6.588606 -1.212130
N 2.181644 -5.941630 -1.335929
C 2.175901 -4.588428 -1.438809
C 3.322935 -3.853593 -1.347902
C 4.557873 -4.506397 -1.159005
H 7.896372 -3.997539 -0.749119
H 7.894210 -6.451845 -0.792675
H 5.783111 -7.704155 -0.996573
H 3.271927 -7.673440 -1.160817
H 1.199714 -4.133735 -1.596205
H 3.303321 -2.777662 -1.412505
C 5.683398 0.200869 -0.643179
C 6.854843 0.947741 -0.472779
C 6.788575 2.315382 -0.322851
C 5.548952 2.966572 -0.336684
C 4.377682 2.218372 -0.502274
C 4.443931 0.852151 -0.655821
H 7.810980 0.446012 -0.463868
H 7.692123 2.892821 -0.195873
H 3.425956 2.724416 -0.521986
H 3.543589 0.274094 -0.790933
C 5.491874 4.367705 -0.215461
C 5.441181 5.574752 -0.140130
C 5.447497 6.981058 -0.141741
C 6.632271 7.662392 -0.360750
C 6.657473 9.057779 -0.442878
C 5.504032 9.793722 -0.327523
C 4.278136 9.145534 -0.093562
C 3.052513 9.840399 0.019287
C 1.901234 9.151573 0.267712
N 1.890583 7.806937 0.443186
C 3.009497 7.120315 0.321171
C 4.241372 7.725927 0.028635
H 7.548345 7.104635 -0.482027
H 7.599824 9.555304 -0.614462
H 5.523799 10.868699 -0.414712
H 3.039780 10.912492 -0.095136
H 0.937817 9.653486 0.337291
H 2.953856 6.043685 0.466484
C 2.433297 -1.997875 4.804657
C 2.509184 -3.192634 4.630307
C 2.629538 -4.570803 4.368605
C 3.411136 -5.386583 5.167861
C 3.578292 -6.743578 4.867807
C 2.988944 -7.300587 3.762077
C 2.176276 -6.504819 2.926488
C 1.577093 -7.004609 1.754522
N 0.813836 -6.265881 0.976816
C 0.542584 -4.980088 1.314441
C 1.098260 -4.390375 2.413527
C 1.966071 -5.131911 3.240729
H 3.905883 -4.966407 6.030340
H 4.193247 -7.349312 5.515357
H 3.138096 -8.341489 3.523284
H 1.741139 -8.036505 1.453133
H -0.146222 -4.455612 0.655825
H 0.886441 -3.362600 2.661098
C 2.328726 -0.604675 4.981545
C 2.552663 -0.027413 6.236470
C 2.425430 1.333879 6.404044
C 2.077098 2.148822 5.319489
C 1.874356 1.572494 4.060315
C 1.994951 0.211454 3.893842
H 2.816408 -0.655845 7.074077
H 2.588211 1.779314 7.374140
H 1.619496 2.203333 3.224163
H 1.836235 -0.237617 2.926287
C 1.901704 3.531258 5.517791
C 1.711230 4.711613 5.707210
C 1.441901 6.055229 6.022846
C 1.601431 6.497869 7.324861
C 1.278521 7.809112 7.686380
C 0.774932 8.693012 6.764134
C 0.601535 8.290401 5.427925
C 0.071154 9.143374 4.433582
C -0.057300 8.694742 3.151505
N 0.335812 7.450964 2.781645
C 0.816064 6.618476 3.684146
C 0.957867 6.966815 5.036298
H 1.973052 5.814983 8.073449
H 1.417613 8.119131 8.710775
H 0.507094 9.697695 7.051095
H -0.231023 10.143344 4.700757
H -0.482637 9.317703 2.366737
H 1.115414 5.629647 3.342901
C -5.206569 1.429546 0.477664
C -5.236134 2.634809 0.578595
C -5.230779 4.041263 0.640965
C -6.388474 4.772129 0.439176
C -6.366952 6.171708 0.439938
C -5.194967 6.860323 0.620640
C -3.993801 6.152324 0.839285
C -2.751489 6.797317 0.990352
N -1.630783 6.139344 1.200371
C -1.648923 4.788080 1.321682
C -2.795930 4.064823 1.161287
C -4.007031 4.728902 0.879408
H -7.319831 4.253434 0.269935
H -7.289933 6.707950 0.281704
H -5.179967 7.938349 0.599116
H -2.686263 7.881011 0.927986
H -0.693944 4.323786 1.557575
H -2.792784 2.989882 1.244761
C -5.141708 0.027381 0.363382
C -3.924940 -0.589170 0.047473
C -3.847830 -1.960068 -0.049950
C -4.983337 -2.747151 0.173646
C -6.203608 -2.129169 0.474874
C -6.282708 -0.756933 0.565925
H -3.051951 0.021196 -0.120498
H -2.912859 -2.437180 -0.295030
H -7.081177 -2.735962 0.640729
H -7.222769 -0.281325 0.803203
C -4.907665 -4.152072 0.133708
C -4.843356 -5.360857 0.144245
C -4.835842 -6.763614 0.243927
C -6.007648 -7.434710 0.548763
C -6.021246 -8.821850 0.721611
C -4.867829 -9.559049 0.612953
C -3.654449 -8.921648 0.298357
C -2.429153 -9.617740 0.190007
C -1.289461 -8.940836 -0.133088
N -1.290865 -7.608719 -0.385232
C -2.409908 -6.920402 -0.274337
C -3.630454 -7.512296 0.085773
H -6.923116 -6.874600 0.663014
H -6.954028 -9.311143 0.957035
H -4.878219 -10.626435 0.767675
H -2.407305 -10.681083 0.368009
H -0.325779 -9.442292 -0.202561
H -2.363265 -5.853581 -0.482541
C -1.582103 2.196408 -4.929810
C -1.644692 3.393982 -4.769272
C -1.755478 4.775393 -4.524213
C -2.472906 5.598402 -5.375272
C -2.631289 6.960756 -5.097020
C -2.100090 7.516742 -3.961390
C -1.357848 6.712998 -3.070113
C -0.827820 7.210422 -1.864208
N -0.134650 6.462597 -1.031915
C 0.131293 5.168233 -1.341203
C -0.360428 4.581467 -2.471619
C -1.154158 5.333988 -3.360917
H -2.921432 5.179988 -6.263501
H -3.193191 7.572401 -5.786045
H -2.243064 8.562462 -3.740708
H -0.989742 8.247552 -1.581120
H 0.758119 4.634752 -0.629243
H -0.157646 3.546978 -2.697206
C -1.511517 0.800050 -5.094142
C -0.870203 0.013590 -4.129372
C -0.805431 -1.352873 -4.280934
C -1.376590 -1.965366 -5.402410
C -2.018931 -1.179269 -6.366925
C -2.087048 0.187836 -6.213673
H -0.424583 0.488831 -3.269906
H -0.303235 -1.960517 -3.545497
H -2.458687 -1.651922 -7.232517
H -2.580953 0.794045 -6.958265
C -1.282903 -3.358268 -5.582626
C -1.175932 -4.552457 -5.748741
C -1.000571 -5.917674 -6.037274
C -1.242001 -6.385633 -7.317324
C -1.004972 -7.721776 -7.653592
C -0.507220 -8.606004 -6.728515
C -0.256676 -8.178277 -5.412508
C 0.270021 -9.031257 -4.416136
C 0.469759 -8.557583 -3.152270
N 0.149428 -7.287590 -2.800540
C -0.321077 -6.454406 -3.707570
C -0.527444 -6.828134 -5.044573
H -1.607593 -5.703445 -8.069510
H -1.204954 -8.051319 -8.661810
H -0.303529 -9.630482 -6.997851
H 0.512074 -10.051635 -4.667116
H 0.895167 -9.181174 -2.368076
H -0.560952 -5.444446 -3.382141
Pd 0.272608 6.952989 -0.921933
Pd 0.352944 -6.865102 0.431428
C -0.174989 -1.978166 -5.509184
C -0.132133 -3.182350 -5.400380
C -0.023290 -4.575951 -5.237394
C 0.217315 -5.406708 -6.318268
C 0.384310 -6.785398 -6.144999
C 0.337579 -7.351650 -4.896734
C 0.090007 -6.540222 -3.769063
C 0.077427 -7.050828 -2.456875
N -0.153716 -6.295766 -1.403871
C -0.435636 -4.977620 -1.561167
C -0.420421 -4.378482 -2.787866
C -0.122021 -5.141812 -3.934692
H 0.282647 -4.982139 -7.308597
H 0.565527 -7.402316 -7.011651
H 0.488078 -8.411356 -4.766127
H 0.271502 -8.105403 -2.277463
H -0.671324 -4.435720 -0.647300
H -0.627780 -3.326370 -2.897941
C -0.214100 -0.574937 -5.615834
C -0.121263 0.043828 -6.867909
C -0.155713 1.417267 -6.965929
C -0.280507 2.203087 -5.813607
C -0.368310 1.583660 -4.561548
C -0.337711 0.211085 -4.463677
H -0.026812 -0.562029 -7.756783
H -0.088762 1.895296 -7.931835
H -0.473936 2.191726 -3.677615
H -0.412579 -0.269025 -3.500909
C -0.347669 3.604590 -5.924883
C -0.434394 4.808293 -6.019342
C -0.622721 6.190856 -6.194628
C -0.906854 6.691204 -7.453495
C -1.173097 8.049989 -7.646528
C -1.179377 8.926335 -6.589479
C -0.885712 8.465461 -5.293701
C -0.890515 9.309544 -4.160051
C -0.575604 8.801756 -2.933420
N -0.223265 7.503749 -2.760594
C -0.230769 6.679160 -3.789331
C -0.576770 7.089594 -5.086131
H -0.934770 6.017539 -8.296346
H -1.390574 8.404678 -8.642473
H -1.408310 9.969892 -6.738597
H -1.146620 10.350439 -4.276676
H -0.592377 9.419171 -2.037062
H 0.055163 5.646007 -3.604160
C 5.412176 -1.621093 -2.104783
C 5.399658 -2.828981 -2.037183
C 5.325865 -4.234250 -1.992019
C 6.241729 -5.022235 -2.666925
C 6.128030 -6.417356 -2.670907
C 5.094573 -7.043917 -2.022992
C 4.144820 -6.276891 -1.314988
C 3.038010 -6.854891 -0.664451
N 2.154054 -6.142090 0.001599
C 2.312365 -4.799503 0.117623
C 3.334222 -4.137682 -0.500818
C 4.269565 -4.859065 -1.270118
H 7.050341 -4.551669 -3.205362
H 6.862335 -6.999198 -3.206183
H 4.999264 -8.117715 -2.046870
H 2.879634 -7.930003 -0.704399
H 1.576445 -4.290286 0.735934
H 3.438785 -3.068137 -0.413129
C 5.400253 -0.214299 -2.167741
C 6.571540 0.495547 -2.454754
C 6.554175 1.872453 -2.491414
C 5.364317 2.569810 -2.247599
C 4.189105 1.857751 -1.981753
C 4.207407 0.482139 -1.938532
H 7.490294 -0.041434 -2.637945
H 7.459540 2.421616 -2.702939
H 3.271633 2.396383 -1.807663
H 3.305071 -0.070753 -1.730584
C 5.373656 3.977365 -2.238879
C 5.400786 5.186677 -2.190943
C 5.529666 6.582865 -2.083860
C 6.764199 7.174273 -2.290573
C 6.941883 8.551162 -2.126258
C 5.900584 9.356608 -1.735986
C 4.626507 8.801644 -1.520429
C 3.517284 9.570184 -1.100097
C 2.303950 8.971927 -0.923447
N 2.110522 7.651906 -1.165615
C 3.124970 6.897157 -1.538975
C 4.421299 7.404632 -1.716554
H 7.604148 6.558871 -2.574652
H 7.918497 8.977214 -2.297770
H 6.046105 10.415366 -1.589754
H 3.643215 10.625648 -0.919300
H 1.435097 9.529801 -0.578986
H 2.924106 5.843047 -1.718580
C 0.517689 2.075821 5.051637
C 0.457029 3.278661 4.936503
C 0.332007 4.670072 4.762406
C 0.012078 5.499331 5.823099
C -0.172736 6.873857 5.633542
C -0.061977 7.436637 4.387980
C 0.272553 6.626887 3.281427
C 0.361182 7.134462 1.971169
N 0.678913 6.382413 0.938452
C 0.978313 5.071429 1.119305
C 0.892687 4.474414 2.344330
C 0.501208 5.233532 3.465772
H -0.105170 5.076766 6.809409
H -0.419058 7.489584 6.484792
H -0.226235 8.492439 4.243449
H 0.156706 8.184501 1.775941
H 1.292640 4.533116 0.227939
H 1.118339 3.427743 2.470695
C 0.592015 0.673332 5.155337
C 0.385040 -0.120006 4.020305
C 0.472166 -1.490938 4.108148
C 0.775857 -2.100590 5.330835
C 0.968040 -1.307366 6.469115
C 0.874431 0.064207 6.383052
H 0.154788 0.354441 3.079668
H 0.311274 -2.104111 3.236373
H 1.195612 -1.778057 7.413865
H 1.027646 0.675494 7.260042
C 0.924455 -3.497082 5.424406
C 1.096761 -4.692562 5.505879
C 1.382091 -6.060086 5.667370
C 1.750113 -6.540401 6.912466
C 2.105393 -7.880353 7.093323
C 2.118542 -8.756906 6.036460
C 1.746088 -8.316031 4.754119
C 1.755527 -9.160754 3.620953
C 1.367940 -8.673281 2.406986
N 0.941113 -7.396382 2.247335
C 0.937383 -6.571696 3.275951
C 1.348722 -6.960862 4.560113
H 1.770760 -5.865472 7.754407
H 2.385264 -8.219466 8.079010
H 2.413521 -9.785062 6.175619
H 2.073630 -10.185552 3.727720
H 1.384861 -9.290305 1.510290
H 0.590234 -5.555579 3.100662
C -4.870826 1.674312 1.341148
C -4.872103 2.881484 1.259956
C -4.815010 4.286577 1.204835
C -5.781941 5.067077 1.814984
C -5.690355 6.463565 1.809525
C -4.628453 7.100039 1.219611
C -3.623682 6.340924 0.582649
C -2.484384 6.929426 0.001196
N -1.546519 6.223226 -0.593977
C -1.675707 4.876756 -0.703598
C -2.727628 4.205969 -0.149142
C -3.724575 4.921035 0.545079
H -6.615405 4.589315 2.307233
H -6.465571 7.039381 2.291286
H -4.551504 8.175460 1.236685
H -2.344780 8.006963 0.038335
H -0.886875 4.373163 -1.259117
H -2.809771 3.133862 -0.226954
C -4.846774 0.270111 1.438285
C -3.773547 -0.450128 0.899733
C -3.740879 -1.822533 0.999085
C -4.782188 -2.507950 1.635548
C -5.855063 -1.787883 2.175148
C -5.886235 -0.414270 2.079052
H -2.976187 0.079940 0.403431
H -2.921442 -2.381077 0.576302
H -6.658742 -2.317061 2.665298
H -6.714415 0.140724 2.493748
C -4.773809 -3.913673 1.709261
C -4.777640 -5.123491 1.745967
C -4.878645 -6.526168 1.734866
C -6.089719 -7.129783 2.026021
C -6.240741 -8.517610 1.950042
C -5.196648 -9.322357 1.565601
C -3.944442 -8.754513 1.270373
C -2.833365 -9.522401 0.853726
C -1.639884 -8.910348 0.603206
N -1.466505 -7.575690 0.769914
C -2.485296 -6.821928 1.133486
C -3.764603 -7.344643 1.378288
H -6.932959 -6.516359 2.304170
H -7.199969 -8.953517 2.184417
H -5.323443 -10.390595 1.485518
H -2.941659 -10.588656 0.735113
H -0.771536 -9.468918 0.258753
H -2.301781 -5.756197 1.251461
