308
cid:55, pot: -222.69770363250427
Pd 0.039118 4.213457 -0.738288
Pd -0.848702 -5.015951 0.096833
C 5.049550 -3.407348 0.174734
C 4.739821 -4.576556 0.202346
C 4.481016 -5.957982 0.114225
C 5.540796 -6.846935 0.091863
C 5.332106 -8.214493 -0.115326
C 4.071386 -8.710294 -0.336417
C 2.962206 -7.845376 -0.310892
C 1.642546 -8.285751 -0.559258
C 0.606873 -7.400579 -0.489918
N 0.792477 -6.103656 -0.141053
C 2.012517 -5.646563 0.063114
C 3.152805 -6.458477 -0.042196
H 6.546083 -6.476024 0.220684
H 6.182879 -8.878711 -0.123477
H 3.917535 -9.759749 -0.532831
H 1.468357 -9.320761 -0.806271
H -0.416088 -7.697896 -0.711344
H 2.114635 -4.599174 0.336612
C 5.407935 -2.048372 0.043913
C 6.757000 -1.679651 0.025059
C 7.101840 -0.357031 -0.184183
C 6.125880 0.605347 -0.380605
C 4.773943 0.253405 -0.358867
C 4.424830 -1.077268 -0.134971
H 7.520583 -2.429189 0.165363
H 8.143409 -0.074241 -0.205175
H 6.422085 1.622087 -0.584936
H 3.389040 -1.370071 -0.073845
C 3.726677 1.254613 -0.581791
C 3.862621 2.581792 -0.161870
C 2.820726 3.467323 -0.347351
N 1.665384 3.095836 -0.906350
C 1.526607 1.841148 -1.352618
C 2.528927 0.906907 -1.221208
H 4.762134 2.913861 0.330317
H 2.894267 4.505636 -0.037320
H 0.573070 1.607953 -1.824217
H 2.399485 -0.085377 -1.622008
C 0.130243 -2.474060 5.551140
C -0.070384 -3.664433 5.471074
C -0.415752 -5.029499 5.485517
C -0.471406 -5.704188 6.691939
C -0.926981 -7.025132 6.760261
C -1.364424 -7.679792 5.635929
C -1.315416 -7.037402 4.385273
C -1.776846 -7.642983 3.194775
C -1.673775 -6.975760 2.009145
N -1.094091 -5.753544 1.920906
C -0.683265 -5.141097 3.014265
C -0.798106 -5.712519 4.291120
H -0.173442 -5.197083 7.596790
H -0.953691 -7.520789 7.718641
H -1.750043 -8.685347 5.697619
H -2.211537 -8.628771 3.237121
H -2.052809 -7.396811 1.080455
H -0.227054 -4.160754 2.896825
C 0.264355 -1.072447 5.651610
C 0.426060 -0.474434 6.905580
C 0.473843 0.903870 7.005132
C 0.357452 1.698319 5.877080
C 0.201893 1.115562 4.616729
C 0.167312 -0.274048 4.513786
H 0.503900 -1.090360 7.788292
H 0.591933 1.365032 7.973883
H 0.353399 2.771242 5.986759
H 0.089327 -0.751125 3.550068
C 0.058208 1.941171 3.413925
C 0.700395 3.176127 3.276804
C 0.569575 3.887686 2.101784
N -0.144057 3.427867 1.070049
C -0.797857 2.265638 1.190973
C -0.731276 1.509592 2.339277
H 1.318400 3.566193 4.068875
H 1.050308 4.851771 1.963798
H -1.383145 1.958070 0.325536
H -1.297107 0.595521 2.417813
C -5.858626 2.603640 -0.821095
C -5.548661 3.772865 -0.842096
C -5.290340 5.153910 -0.746191
C -6.350764 6.042026 -0.717058
C -6.142793 7.408531 -0.501902
C -4.882098 7.903807 -0.279819
C -3.772330 7.039942 -0.312214
C -2.452580 7.479782 -0.063454
C -1.416306 6.595760 -0.139461
N -1.601581 5.300654 -0.495292
C -2.821637 4.843890 -0.700355
C -3.962354 5.654427 -0.588776
H -7.355935 5.671105 -0.846476
H -6.993951 8.071996 -0.488471
H -4.728612 8.952184 -0.077430
H -2.278680 8.513508 0.189033
H -0.393325 6.892663 0.082058
H -2.923315 3.797970 -0.979820
C -6.217136 1.244036 -0.697792
C -7.565919 0.874178 -0.690154
C -7.911265 -0.449414 -0.488046
C -6.935911 -1.411759 -0.287740
C -5.584260 -1.058682 -0.298162
C -5.234618 0.273062 -0.515021
H -8.329156 1.623510 -0.833453
H -8.952688 -0.733166 -0.475670
H -7.232844 -2.429359 -0.089047
H -4.198572 0.566845 -0.567219
C -4.537661 -2.059644 -0.071351
C -4.669400 -3.385361 -0.497128
C -3.627837 -4.270503 -0.307848
N -2.476481 -3.899975 0.260122
C -2.342338 -2.646870 0.712232
C -3.344680 -1.713169 0.577711
H -5.565192 -3.716558 -0.996596
H -3.698212 -5.307797 -0.622373
H -1.392310 -2.414487 1.191219
H -3.219040 -0.722506 0.983476
C -0.914548 1.668278 -6.197904
C -0.718197 2.859343 -6.116752
C -0.377333 4.225544 -6.129809
C -0.318229 4.900183 -7.336130
C 0.133003 6.222631 -7.402655
C 0.562782 6.879019 -6.276421
C 0.510127 6.236716 -5.025871
C 0.964188 6.843969 -3.833463
C 0.858343 6.176571 -2.648218
N 0.282509 4.952344 -2.562198
C -0.121542 4.338335 -3.657283
C -0.002989 4.910057 -4.933724
H -0.610197 4.391758 -8.242326
H 0.162541 6.718155 -8.361054
H 0.945145 7.885874 -6.336486
H 1.395673 7.831348 -3.873977
H 1.232024 6.599122 -1.718062
H -0.574718 3.356540 -3.541878
C -1.043648 0.266221 -6.298532
C -1.192444 -0.333118 -7.553444
C -1.235691 -1.711588 -7.652364
C -1.127400 -2.505034 -6.522734
C -0.984631 -1.920871 -5.261538
C -0.954798 -0.531153 -5.159333
H -1.263887 0.282018 -8.437280
H -1.343864 -2.173713 -8.621838
H -1.119490 -3.577898 -6.631498
H -0.886817 -0.053089 -4.195295
C -0.848800 -2.745222 -4.056944
C -1.488554 -3.981877 -3.923981
C -1.364608 -4.692457 -2.747647
N -0.660095 -4.230089 -1.710838
C -0.008997 -3.065915 -1.827208
C -0.069170 -2.310565 -2.976335
H -2.099320 -4.374142 -4.720676
H -1.843673 -5.657815 -2.612634
H 0.568508 -2.755835 -0.957358
H 0.494058 -1.394655 -3.051016
Pd -0.486595 4.238680 -0.149629
Pd 0.126787 -5.038193 -0.630162
C 5.610606 -2.575646 0.486255
C 5.504680 -3.769365 0.320724
C 5.498658 -5.145528 0.021809
C 6.690083 -5.848456 0.036768
C 6.744870 -7.185645 -0.370287
C 5.623056 -7.830086 -0.828900
C 4.387068 -7.158632 -0.850869
C 3.201368 -7.753853 -1.337614
C 2.028582 -7.057921 -1.303512
N 1.946484 -5.814311 -0.769681
C 3.037137 -5.211445 -0.338257
C 4.303972 -5.814436 -0.383579
H 7.594439 -5.351407 0.352716
H 7.691683 -7.703188 -0.342306
H 5.675696 -8.849728 -1.177054
H 3.237650 -8.755020 -1.736445
H 1.105358 -7.471963 -1.703614
H 2.925095 -4.213184 0.077970
C 5.743875 -1.173591 0.581585
C 7.002370 -0.604144 0.801044
C 7.137947 0.771839 0.812757
C 6.041943 1.591949 0.604151
C 4.777417 1.037985 0.389272
C 4.637295 -0.348736 0.390331
H 7.860889 -1.240439 0.951495
H 8.110682 1.210666 0.975622
H 6.181755 2.661018 0.574966
H 3.667152 -0.802429 0.266441
C 3.608158 1.889022 0.149591
C 3.463859 3.143992 0.750012
C 2.315229 3.877217 0.533022
N 1.315356 3.420651 -0.226615
C 1.447587 2.240030 -0.843989
C 2.572286 1.461109 -0.691934
H 4.228220 3.532884 1.402822
H 2.172446 4.856802 0.979944
H 0.611021 1.936419 -1.471761
H 2.663304 0.531468 -1.230037
C 0.000479 -3.216213 5.186547
C 0.017673 -4.398026 4.928091
C -0.087987 -5.786569 4.719613
C -0.170244 -6.633731 5.810177
C -0.397655 -8.004094 5.644620
C -0.579718 -8.543427 4.395695
C -0.493161 -7.722286 3.256580
C -0.699202 -8.207539 1.945379
C -0.571762 -7.363563 0.880971
N -0.203684 -6.067645 1.031952
C -0.036757 -5.569061 2.241426
C -0.202962 -6.334772 3.405934
H -0.073250 -6.227235 6.805238
H -0.452801 -8.634932 6.518670
H -0.791940 -9.593957 4.273626
H -0.960513 -9.243400 1.799943
H -0.759952 -7.694777 -0.138006
H 0.255461 -4.523999 2.315499
C -0.120392 -1.841308 5.482581
C -0.213719 -1.418853 6.812547
C -0.414921 -0.079808 7.092488
C -0.530755 0.846263 6.069691
C -0.433263 0.440650 4.736230
C -0.216821 -0.906980 4.453454
H -0.137013 -2.139906 7.611799
H -0.493572 0.244766 8.118960
H -0.731546 1.877594 6.313382
H -0.096810 -1.241643 3.435536
C -0.572242 1.404090 3.640141
C -0.139408 2.729278 3.753612
C -0.249575 3.579159 2.672136
N -0.746116 3.174226 1.499670
C -1.200842 1.920711 1.377911
C -1.142714 1.021460 2.418445
H 0.304053 3.087200 4.668351
H 0.071849 4.615141 2.727469
H -1.617720 1.659327 0.406320
H -1.548859 0.030196 2.299021
C -5.969124 1.775728 -1.270969
C -5.863758 2.968556 -1.098881
C -5.859073 4.343043 -0.792439
C -7.051793 5.044123 -0.800903
C -7.108039 6.378968 -0.386341
C -5.986276 7.022732 0.073165
C -4.749083 6.353352 0.088629
C -3.563243 6.948029 0.575662
C -2.389285 6.254304 0.535322
N -2.306354 5.013589 -0.005020
C -3.396973 4.411088 -0.437296
C -4.664719 5.011865 -0.386150
H -7.955946 4.547163 -1.117546
H -8.055742 6.894841 -0.409216
H -6.039808 8.040339 0.427056
H -3.600253 7.947026 0.979756
H -1.465968 6.667986 0.935390
H -3.284034 3.415352 -0.859167
C -6.101525 0.374247 -1.373671
C -7.358211 -0.194670 -1.604300
C -7.493273 -1.570740 -1.623212
C -6.398325 -2.391383 -1.410875
C -5.135618 -1.838039 -1.184783
C -4.996000 -0.451275 -1.178731
H -8.216006 0.441938 -1.757628
H -8.464674 -2.009178 -1.794650
H -6.538041 -3.460537 -1.387368
H -4.026849 0.002101 -1.045813
C -3.967525 -2.689560 -0.941295
C -3.818664 -3.941518 -1.546700
C -2.670873 -4.675104 -1.326037
N -1.675797 -4.221347 -0.558285
C -1.812995 -3.043814 0.064061
C -2.937252 -2.265014 -0.091139
H -4.578664 -4.327912 -2.206062
H -2.524631 -5.652452 -1.776794
H -0.980583 -2.742619 0.698369
H -3.032301 -1.338308 0.451077
C -0.334378 2.418101 -5.968338
C -0.356001 3.599758 -5.709339
C -0.255103 4.988555 -5.500002
C -0.169468 5.836171 -6.590038
C 0.053215 7.207052 -6.423073
C 0.227256 7.746622 -5.173120
C 0.137143 6.925081 -4.034693
C 0.335462 7.410426 -2.722467
C 0.205388 6.566016 -1.658843
N -0.158320 5.269061 -1.811691
C -0.318158 4.770183 -3.022055
C -0.148412 5.536740 -4.185649
H -0.260217 5.429498 -7.585701
H 0.111146 7.838232 -7.296726
H 0.435879 8.797719 -5.049754
H 0.593148 8.447210 -2.575465
H 0.387903 6.897607 -0.638955
H -0.606900 3.724518 -3.097984
C -0.208514 1.043591 -6.263840
C -0.102207 0.621956 -7.593176
C 0.103379 -0.716724 -7.871859
C 0.210924 -1.643304 -6.848483
C 0.100590 -1.238289 -5.515858
C -0.120441 0.108758 -5.234369
H -0.172388 1.343400 -8.392718
H 0.191971 -1.040592 -8.897682
H 0.415361 -2.674066 -7.090658
H -0.250431 0.442855 -4.217511
C 0.231455 -2.202023 -4.418936
C -0.198213 -3.527917 -4.536387
C -0.095097 -4.378037 -3.454424
N 0.391487 -3.972779 -2.277953
C 0.842695 -2.718460 -2.151858
C 0.791050 -1.818774 -3.192371
H -0.633659 -3.886095 -5.454956
H -0.414326 -5.414611 -3.512564
H 1.250994 -2.456528 -1.176652
H 1.193891 -0.826662 -3.069393
