372
cid:69, pot: -167.60000000000002
Pd -0.409290 6.990465 1.352994
Pd 0.226813 -6.527506 -1.751553
C 5.339345 -1.208013 0.488220
C 5.393808 -2.393722 0.253853
C 5.405528 -3.782579 0.027113
C 6.487207 -4.560428 0.402903
C 6.471333 -5.949147 0.230437
C 5.374727 -6.583671 -0.294793
C 4.253082 -5.826544 -0.694843
C 3.078524 -6.420044 -1.195696
N 2.031519 -5.715651 -1.569831
C 2.071710 -4.359988 -1.521534
C 3.151656 -3.687931 -1.025559
C 4.271052 -4.408793 -0.562721
H 7.353061 -4.087488 0.841025
H 7.334854 -6.522430 0.530789
H 5.359009 -7.656101 -0.405920
H 3.003833 -7.501393 -1.279518
H 1.188479 -3.850309 -1.901785
H 3.164226 -2.611139 -0.975110
C 5.253783 0.169557 0.765510
C 6.334185 0.844487 1.345457
C 6.243330 2.191511 1.618556
C 5.068678 2.893252 1.320802
C 3.987034 2.216508 0.745338
C 4.078936 0.871262 0.468944
H 7.240725 0.303942 1.573504
H 7.077964 2.713903 2.061787
H 3.087897 2.762245 0.508749
H 3.249723 0.348942 0.018825
C 4.995334 4.276077 1.572880
C 4.939129 5.470361 1.761910
C 4.962123 6.868043 1.915846
C 6.167408 7.516669 2.121862
C 6.231691 8.910837 2.203398
C 5.103053 9.680052 2.062582
C 3.854469 9.064620 1.862617
C 2.656999 9.796351 1.694214
C 1.475152 9.135867 1.524987
N 1.398326 7.782073 1.542008
C 2.496431 7.064033 1.671966
C 3.767221 7.642819 1.813250
H 7.072696 6.935326 2.208392
H 7.189079 9.382350 2.364894
H 5.159847 10.756496 2.102734
H 2.690552 10.874076 1.698806
H 0.538891 9.668965 1.369569
H 2.388437 5.981601 1.676655
C 0.538315 -2.427979 4.777207
C 0.647481 -3.601109 4.502515
C 0.822376 -4.949602 4.137413
C 1.329071 -5.874803 5.033218
C 1.560122 -7.200374 4.647361
C 1.310168 -7.616868 3.365065
C 0.784038 -6.706551 2.423579
C 0.544546 -7.059049 1.081676
N 0.048251 -6.213401 0.203224
C -0.294144 -4.957944 0.587184
C -0.074104 -4.506829 1.857067
C 0.507864 -5.364756 2.812322
H 1.557412 -5.565644 6.041917
H 1.953787 -7.894310 5.373918
H 1.509933 -8.633689 3.066880
H 0.776817 -8.061222 0.729177
H -0.756227 -4.340490 -0.179976
H -0.336540 -3.501260 2.144189
C 0.403289 -1.056638 5.067765
C 0.260535 -0.619461 6.389397
C 0.106148 0.722078 6.661100
C 0.096782 1.656761 5.618025
C 0.261063 1.220034 4.298533
C 0.408781 -0.121082 4.026000
H 0.262733 -1.340149 7.193560
H -0.014099 1.059671 7.679711
H 0.266974 1.942586 3.498567
H 0.532139 -0.462720 3.010576
C -0.112353 3.018269 5.907462
C -0.335715 4.180465 6.162037
C -0.669217 5.495537 6.531939
C -0.888837 5.796901 7.865195
C -1.287298 7.077449 8.259852
C -1.491488 8.070895 7.334222
C -1.274756 7.813372 5.968819
C -1.484047 8.784522 4.963508
C -1.240539 8.473853 3.657491
N -0.771688 7.258200 3.282415
C -0.583502 6.318852 4.188173
C -0.835728 6.522172 5.553752
H -0.758235 5.026477 8.609647
H -1.447544 7.275965 9.308544
H -1.819224 9.051925 7.640231
H -1.838963 9.764341 5.240318
H -1.412760 9.190677 2.856643
H -0.209688 5.357724 3.841278
C -5.478250 1.743796 -1.158690
C -5.521679 2.932812 -0.939430
C -5.518152 4.324207 -0.724863
C -6.558975 5.120654 -1.169275
C -6.522196 6.510758 -1.009451
C -5.444947 7.126718 -0.425911
C -4.367141 6.349432 0.049516
C -3.214511 6.922022 0.620271
N -2.210617 6.198779 1.069864
C -2.278984 4.844199 1.032466
C -3.338623 4.190681 0.471634
C -4.408118 4.931137 -0.071622
H -7.407279 4.662118 -1.654288
H -7.353312 7.099297 -1.366321
H -5.411717 8.199750 -0.324302
H -3.121308 8.002670 0.698043
H -1.438918 4.317941 1.480286
H -3.372412 3.113668 0.434526
C -5.399482 0.358911 -1.402041
C -4.150698 -0.274053 -1.420873
C -4.064728 -1.630092 -1.641248
C -5.225435 -2.386401 -1.840315
C -6.473299 -1.750379 -1.836304
C -6.559310 -0.392280 -1.622417
H -3.259413 0.312224 -1.263513
H -3.104519 -2.119559 -1.658306
H -7.368311 -2.332695 -1.996602
H -7.522146 0.096699 -1.614410
C -5.157907 -3.782012 -2.010113
C -5.113587 -4.987298 -2.113705
C -5.151737 -6.391969 -2.169951
C -6.369374 -7.039660 -2.289448
C -6.448756 -8.435308 -2.280415
C -5.322098 -9.206449 -2.133371
C -4.062240 -8.593043 -2.014915
C -2.866402 -9.326435 -1.842459
C -1.674135 -8.669748 -1.748921
N -1.586765 -7.320122 -1.843736
C -2.681750 -6.599266 -1.984128
C -3.961128 -7.171740 -2.056352
H -7.272017 -6.455293 -2.382232
H -7.415399 -8.905510 -2.377511
H -5.389408 -10.282583 -2.105731
H -2.909563 -10.402288 -1.782970
H -0.737646 -9.202413 -1.593277
H -2.564248 -5.519833 -2.052324
C -0.433006 2.898003 -5.180993
C -0.525409 4.074759 -4.915322
C -0.686285 5.427749 -4.562959
C -1.116467 6.362629 -5.488859
C -1.332739 7.695357 -5.120648
C -1.147114 8.110299 -3.826695
C -0.704618 7.189436 -2.853294
C -0.541173 7.539109 -1.499196
N -0.127883 6.681897 -0.589901
C 0.201117 5.415281 -0.949353
C 0.051397 4.967526 -2.230378
C -0.441544 5.839482 -3.222269
H -1.293091 6.055848 -6.508608
H -1.663540 8.397093 -5.870805
H -1.335659 9.133477 -3.543447
H -0.766045 8.548246 -1.162933
H 0.588316 4.786133 -0.150198
H 0.298733 3.953446 -2.499904
C -0.334181 1.523709 -5.469699
C -0.009376 0.616910 -4.453430
C 0.080534 -0.728714 -4.728386
C -0.148099 -1.199542 -6.026510
C -0.473964 -0.293086 -7.042870
C -0.567558 1.053148 -6.767196
H 0.173471 0.983209 -3.455681
H 0.340789 -1.428613 -3.950756
H -0.649393 -0.656445 -8.044485
H -0.817241 1.752193 -7.551316
C -0.022520 -2.569783 -6.323326
C 0.114012 -3.744511 -6.581197
C 0.349478 -5.079773 -6.954634
C 0.484056 -5.405017 -8.293255
C 0.792718 -6.709190 -8.691246
C 0.990498 -7.702999 -7.764633
C 0.853746 -7.421772 -6.393573
C 1.058923 -8.392976 -5.387390
C 0.889205 -8.058628 -4.075511
N 0.495567 -6.818201 -3.693938
C 0.318031 -5.878121 -4.601134
C 0.503781 -6.105442 -5.973598
H 0.360259 -4.635181 -9.039478
H 0.889775 -6.926142 -9.744150
H 1.251504 -8.702740 -8.074441
H 1.351367 -9.392144 -5.668270
H 1.061653 -8.776023 -3.275258
H 0.005965 -4.896935 -4.249914
Pd 1.336053 -0.071594 7.333541
Pd -0.857981 1.066934 -6.329096
C 5.366762 0.160105 -1.870178
C 5.177838 0.222494 -3.063555
C 4.911807 0.243336 -4.445340
C 5.875581 -0.130991 -5.365860
C 5.589548 -0.166360 -6.735395
C 4.339366 0.146452 -7.204634
C 3.329812 0.537487 -6.299513
C 2.014018 0.824528 -6.710617
N 1.071141 1.189820 -5.868057
C 1.359197 1.345068 -4.550995
C 2.596134 1.064781 -4.045610
C 3.617963 0.617029 -4.907184
H 6.860642 -0.405145 -5.019780
H 6.367522 -0.458476 -7.423826
H 4.117909 0.097082 -8.258771
H 1.736900 0.740941 -7.758567
H 0.540453 1.704475 -3.930638
H 2.807588 1.174188 -2.994244
C 5.565151 0.080448 -0.478686
C 6.813713 -0.281968 0.039897
C 7.000934 -0.362532 1.402096
C 5.942748 -0.085630 2.276452
C 4.693222 0.271892 1.756919
C 4.506918 0.356145 0.395792
H 7.630331 -0.493808 -0.634152
H 7.965044 -0.637585 1.803105
H 3.883669 0.493638 2.433449
H 3.547234 0.638539 -0.007064
C 6.150794 -0.138496 3.667504
C 6.333799 -0.155213 4.863988
C 6.626025 -0.099562 6.238462
C 7.944204 -0.085166 6.660390
C 8.266886 0.045346 8.014379
C 7.285612 0.182310 8.965019
C 5.931898 0.162509 8.584559
C 4.873249 0.314234 9.508628
C 3.580483 0.264307 9.075146
N 3.265316 0.041406 7.775216
C 4.224589 -0.080524 6.878984
C 5.585950 -0.006035 7.212169
H 8.734318 -0.163849 5.929274
H 9.305855 0.052453 8.306784
H 7.538843 0.306371 10.006240
H 5.099519 0.471047 10.551156
H 2.742764 0.400512 9.756772
H 3.926026 -0.254659 5.847487
C 1.009309 -4.725176 -1.586469
C 0.870878 -4.615717 -2.783372
C 0.753696 -4.436372 -4.174908
C 1.196187 -5.402099 -5.061923
C 1.135258 -5.193274 -6.444669
C 0.653927 -4.017725 -6.961206
C 0.184007 -3.011263 -6.090668
C -0.283229 -1.766705 -6.554433
N -0.727618 -0.828602 -5.744764
C -0.788105 -1.057098 -4.408651
C -0.331339 -2.218384 -3.854171
C 0.204185 -3.225076 -4.682946
H 1.602456 -6.326237 -4.679674
H 1.487384 -5.970004 -7.105701
H 0.628892 -3.853137 -8.026562
H -0.280833 -1.543095 -7.618640
H -1.225828 -0.258568 -3.813726
H -0.370861 -2.380135 -2.788890
C 1.160009 -4.823797 -0.189781
C 1.266907 -6.074695 0.428279
C 1.390991 -6.161092 1.797459
C 1.416681 -4.998727 2.578331
C 1.331133 -3.747677 1.956738
C 1.200520 -3.661095 0.589274
H 1.242189 -6.971402 -0.172823
H 1.463523 -7.126148 2.276432
H 1.364638 -2.854000 2.558739
H 1.130701 -2.699399 0.106151
C 1.493181 -5.105209 3.979825
C 1.515689 -5.208072 5.185803
C 1.472760 -5.413098 6.576321
C 1.481830 -6.703089 7.078721
C 1.372496 -6.944207 8.451420
C 1.233556 -5.908487 9.342115
C 1.225431 -4.580662 8.878930
C 1.067400 -3.470258 9.739011
C 1.083434 -2.206049 9.226356
N 1.275547 -1.967655 7.905456
C 1.406034 -2.977525 7.068030
C 1.369844 -4.316924 7.485444
H 1.565888 -7.535356 6.396665
H 1.384924 -7.963209 8.806656
H 1.128332 -6.098995 10.398601
H 0.931731 -3.635032 10.795889
H 0.942008 -1.330402 9.857245
H 1.554584 -2.739137 6.016908
C -4.867688 1.117964 2.903089
C -4.669321 1.071980 4.095689
C -4.389514 1.065137 5.475408
C -5.318808 1.513695 6.397527
C -5.013741 1.563869 7.762748
C -3.778356 1.188995 8.225034
C -2.805614 0.716400 7.318123
C -1.506072 0.355335 7.721964
N -0.599039 -0.091401 6.878902
C -0.913011 -0.260008 5.569696
C -2.135053 0.088883 5.070362
C -3.114902 0.623601 5.931244
H -6.290130 1.837896 6.056141
H -5.764552 1.917120 8.452614
H -3.540922 1.249600 9.275054
H -1.211787 0.446563 8.764835
H -0.130765 -0.692699 4.950029
H -2.365553 -0.035884 4.024557
C -5.069702 1.162494 1.510085
C -3.967098 1.214660 0.648652
C -4.154003 1.241533 -0.714839
C -5.447091 1.209051 -1.249382
C -6.550130 1.171991 -0.386971
C -6.363722 1.151756 0.977663
H -2.972596 1.235949 1.065096
H -3.307014 1.283755 -1.380185
H -7.547934 1.153816 -0.799219
H -7.214510 1.118145 1.641958
C -5.652646 1.178471 -2.641444
C -5.838361 1.108311 -3.835633
C -6.134211 0.953952 -5.201745
C -7.453286 0.853367 -5.609579
C -7.779463 0.631989 -6.950849
C -6.799664 0.488337 -7.902078
C -5.445674 0.589263 -7.535996
C -4.388403 0.433124 -8.460934
C -3.095764 0.558063 -8.042554
N -2.780934 0.857903 -6.758374
C -3.737989 0.990820 -5.861406
C -5.097823 0.848454 -6.178114
H -8.241076 0.938924 -4.876853
H -8.819041 0.560724 -7.232100
H -7.054490 0.296602 -8.932507
H -4.615569 0.212579 -9.491736
H -2.257716 0.421624 -8.723824
H -3.438756 1.227992 -4.842612
C -0.249867 5.755826 2.541161
C -0.095582 5.657472 3.737146
C 0.034466 5.492707 5.128737
C -0.335472 6.497261 6.006482
C -0.261080 6.308309 7.391170
C 0.158688 5.114721 7.920203
C 0.549183 4.066672 7.059594
C 0.943271 2.802087 7.537023
N 1.308523 1.823545 6.736031
C 1.357064 2.024917 5.394845
C 0.968089 3.204673 4.828464
C 0.517274 4.258566 5.648979
H -0.692264 7.437873 5.615104
H -0.553479 7.115847 8.044624
H 0.193916 4.966788 8.987732
H 0.947278 2.596205 8.604521
H 1.723702 1.185525 4.807086
H 0.993588 3.346413 3.760066
C -0.436181 5.848589 1.148868
C -0.152542 4.748579 0.330257
C -0.340673 4.831061 -1.030712
C -0.812940 6.016363 -1.606237
C -1.097682 7.116230 -0.787740
C -0.912948 7.032789 0.574585
H 0.218178 3.838965 0.775496
H -0.113281 3.989672 -1.665181
H -1.461138 8.030861 -1.232182
H -1.131001 7.881531 1.205429
C -0.973458 6.120342 -3.000864
C -1.083335 6.215795 -4.202462
C -1.140115 6.411405 -5.593986
C -1.237109 7.694615 -6.103681
C -1.220036 7.926429 -7.482309
C -1.087291 6.888981 -8.372040
C -0.996175 5.567202 -7.900632
C -0.842062 4.455605 -8.759899
C -0.781114 3.196453 -8.237799
N -0.894595 2.962960 -6.906721
C -1.014737 3.975377 -6.070747
C -1.048574 5.311387 -6.499370
H -1.314861 8.529169 -5.423841
H -1.297952 8.940513 -7.843734
H -1.051004 7.073830 -9.434177
H -0.771320 4.615156 -9.823964
H -0.639644 2.321351 -8.869352
H -1.098905 3.741971 -5.011589
