308
cid:69, pot: -203.55559943429984
Pd 0.028378 4.809763 0.048277
Pd -0.005118 -4.499698 0.026883
C 5.676727 -2.368143 -0.718887
C 5.465059 -3.558445 -0.764944
C 5.298741 -4.943731 -0.955736
C 6.401255 -5.725253 -1.251637
C 6.261998 -7.081144 -1.566059
C 5.022697 -7.668489 -1.623264
C 3.874060 -6.915645 -1.318511
C 2.567945 -7.450950 -1.386560
C 1.497688 -6.675305 -1.049099
N 1.644654 -5.404690 -0.599536
C 2.843931 -4.857906 -0.556204
C 4.005008 -5.547943 -0.938697
H 7.382883 -5.276739 -1.255160
H 7.145119 -7.660448 -1.788703
H 4.915386 -8.704945 -1.902275
H 2.430637 -8.470276 -1.710172
H 0.476817 -7.043910 -1.125443
H 2.914276 -3.835406 -0.193162
C 5.903682 -0.975657 -0.761820
C 7.196698 -0.483936 -0.968242
C 7.399194 0.878518 -1.089628
C 6.334711 1.760823 -1.014361
C 5.038134 1.285205 -0.802831
C 4.834641 -0.086984 -0.667229
H 8.026916 -1.169616 -1.039868
H 8.396490 1.256884 -1.255507
H 6.513213 2.815080 -1.155524
H 3.850870 -0.478460 -0.464073
C 3.896080 2.201885 -0.737346
C 4.004630 3.491336 -0.206544
C 2.883123 4.290360 -0.117678
N 1.678114 3.867269 -0.510418
C 1.556699 2.651866 -1.058787
C 2.633437 1.805907 -1.199183
H 4.949696 3.857939 0.159644
H 2.932571 5.297843 0.285007
H 0.554870 2.376399 -1.385094
H 2.509618 0.847308 -1.676447
C 1.731286 -2.394369 5.478625
C 1.609205 -3.585622 5.306397
C 1.374873 -4.972169 5.232450
C 1.584295 -5.757914 6.351604
C 1.248052 -7.115870 6.353763
C 0.668630 -7.701150 5.255684
C 0.447269 -6.943944 4.090846
C -0.171075 -7.476651 2.937242
C -0.329725 -6.695861 1.829666
N 0.132167 -5.422497 1.776481
C 0.683139 -4.878654 2.844174
C 0.839229 -5.573998 4.053390
H 1.999006 -5.311463 7.242328
H 1.428577 -7.698481 7.244187
H 0.376289 -8.739357 5.273358
H -0.516477 -8.497995 2.946355
H -0.834649 -7.062265 0.938478
H 1.036770 -3.853771 2.757269
C 1.775914 -1.001711 5.704706
C 2.111926 -0.510026 6.970230
C 2.073414 0.851645 7.207469
C 1.700078 1.733000 6.206953
C 1.367828 1.257598 4.935776
C 1.419541 -0.113752 4.691775
H 2.390646 -1.195226 7.755991
H 2.326354 1.230041 8.186209
H 1.635318 2.786191 6.430119
H 1.208040 -0.504693 3.709499
C 0.952143 2.174249 3.869957
C 1.465766 3.470535 3.759704
C 1.076150 4.272728 2.706714
N 0.227519 3.846573 1.766821
C -0.305805 2.622819 1.870959
C 0.019364 1.773069 2.903834
H 2.183333 3.840908 4.473412
H 1.451423 5.285657 2.593799
H -1.010422 2.344046 1.088691
H -0.453685 0.807382 2.978208
C -5.653746 2.677506 0.789023
C -5.440678 3.867233 0.841520
C -5.273427 5.251377 1.039979
C -6.375313 6.031382 1.342534
C -6.235271 7.385426 1.664770
C -4.995780 7.972156 1.722895
C -3.847861 7.221047 1.411424
C -2.541548 7.755793 1.479787
C -1.471968 6.981960 1.135814
N -1.619980 5.713823 0.679566
C -2.819456 5.167446 0.635394
C -3.979741 5.855498 1.023955
H -7.356932 5.582925 1.345452
H -7.117779 7.963460 1.892572
H -4.887688 9.006956 2.007707
H -2.403458 8.773312 1.808674
H -0.451030 7.350149 1.212204
H -2.890536 4.146996 0.266589
C -5.882109 1.285081 0.824543
C -7.176747 0.793298 1.019806
C -7.380931 -0.569505 1.134182
C -6.316357 -1.452194 1.062828
C -5.018142 -0.976525 0.862555
C -4.812965 0.396123 0.733874
H -8.007142 1.479084 1.088417
H -8.379538 -0.948014 1.291492
H -6.496508 -2.506849 1.198496
H -3.827435 0.787768 0.539527
C -3.876073 -1.893382 0.801017
C -3.981644 -3.180454 0.263925
C -2.859818 -3.979474 0.178878
N -1.657061 -3.558533 0.580979
C -1.539041 -2.345667 1.135683
C -2.616310 -1.499957 1.272977
H -4.924413 -3.545175 -0.109930
H -2.907031 -4.985238 -0.228633
H -0.539287 -2.072014 1.469733
H -2.495223 -0.543776 1.755573
C -1.683912 2.703997 -5.413283
C -1.565887 3.895441 -5.239196
C -1.335815 5.282570 -5.163010
C -1.541829 6.068574 -6.282652
C -1.209642 7.427454 -6.282157
C -0.637534 8.013564 -5.180736
C -0.419777 7.256119 -4.015379
C 0.191549 7.789627 -2.858481
C 0.347421 7.008443 -1.750833
N -0.110935 5.733646 -1.700687
C -0.655448 5.189038 -2.771382
C -0.807843 5.884984 -3.980785
H -1.950796 5.621492 -7.175846
H -1.387386 8.010196 -7.173090
H -0.348198 9.052609 -5.196129
H 0.534009 8.812083 -2.865088
H 0.847240 7.375705 -0.857144
H -1.006352 4.163185 -2.687138
C -1.723617 1.311376 -5.640412
C -2.047027 0.819654 -6.909177
C -2.003941 -0.541822 -7.146580
C -1.638349 -1.423075 -6.143045
C -1.318606 -0.947537 -4.868732
C -1.375116 0.423551 -4.624643
H -2.319609 1.504765 -7.697203
H -2.247204 -0.920191 -8.127804
H -1.569646 -2.475938 -6.365958
H -1.173450 0.814518 -3.640260
C -0.910405 -1.863831 -3.799701
C -1.422249 -3.161192 -3.694113
C -1.039221 -3.963170 -2.638572
N -0.198830 -3.535799 -1.691897
C 0.332503 -2.310787 -1.790909
C 0.013528 -1.461061 -2.825745
H -2.133367 -3.532650 -4.413809
H -1.413288 -4.976932 -2.528988
H 1.030075 -2.030651 -1.002736
H 0.484568 -0.494147 -2.895706
Pd -2.712482 3.152234 -1.767374
Pd 3.183624 -2.936333 2.083964
C -2.587188 -4.872369 2.660413
C -1.684024 -5.500907 3.163224
C -0.717068 -6.228995 3.883012
C -1.108882 -7.329842 4.623581
C -0.202363 -8.006552 5.446415
C 1.095570 -7.577121 5.569113
C 1.541864 -6.469097 4.826075
C 2.855583 -5.958353 4.927929
C 3.233904 -4.898575 4.156790
N 2.398723 -4.336672 3.248483
C 1.154289 -4.761715 3.149396
C 0.645468 -5.805338 3.938366
H -2.134847 -7.661497 4.577293
H -0.543141 -8.863446 6.007390
H 1.782499 -8.078481 6.232752
H 3.546708 -6.411537 5.620525
H 4.225275 -4.457388 4.236750
H 0.518645 -4.279363 2.410736
C -3.644994 -4.085197 2.156414
C -4.968780 -4.506802 2.317918
C -6.002609 -3.692499 1.893706
C -5.741382 -2.461696 1.315600
C -4.424151 -2.029301 1.142362
C -3.380939 -2.855062 1.557645
H -5.176319 -5.459928 2.779478
H -7.024271 -4.015565 2.024640
H -6.566073 -1.826707 1.032790
H -2.354784 -2.564138 1.400377
C -4.127618 -0.722459 0.548132
C -4.931558 -0.156016 -0.446403
C -4.572237 1.051050 -1.010259
N -3.461965 1.700307 -0.648307
C -2.698091 1.197750 0.329666
C -3.002787 0.008977 0.953179
H -5.814238 -0.665520 -0.797013
H -5.175742 1.521079 -1.781341
H -1.823106 1.787619 0.599065
H -2.386812 -0.351597 1.761034
C 1.485146 -4.836581 -3.454439
C 2.299426 -5.472842 -2.825234
C 3.338728 -6.204713 -2.219515
C 3.869846 -7.301255 -2.874715
C 4.981375 -7.979527 -2.363371
C 5.598923 -7.555906 -1.213145
C 5.086957 -6.452256 -0.506608
C 5.691185 -5.946996 0.666760
C 5.126839 -4.890827 1.320610
N 3.964805 -4.328130 0.907415
C 3.389693 -4.748746 -0.202362
C 3.919611 -5.787620 -0.983349
H 3.428574 -7.628155 -3.803805
H 5.366526 -8.832887 -2.900397
H 6.478154 -8.058260 -0.841464
H 6.598427 -6.400947 1.031840
H 5.585691 -4.453392 2.204656
H 2.460494 -4.266684 -0.497726
C 0.611714 -4.039958 -4.225877
C 0.266308 -4.436203 -5.521899
C -0.522759 -3.611223 -6.302072
C -0.969653 -2.394339 -5.815641
C -0.638380 -1.987495 -4.520697
C 0.145687 -2.824653 -3.728662
H 0.623810 -5.378048 -5.908843
H -0.783520 -3.914469 -7.304682
H -1.546698 -1.749666 -6.459661
H 0.382366 -2.554685 -2.711971
C -1.086809 -0.694296 -3.995823
C -2.312293 -0.126881 -4.359935
C -2.706010 1.069305 -3.795888
N -1.957984 1.706756 -2.890729
C -0.764422 1.202045 -2.553715
C -0.295404 0.023791 -3.088953
H -2.965224 -0.626904 -5.056477
H -3.648528 1.540019 -4.059940
H -0.190963 1.781314 -1.831435
H 0.684550 -0.337926 -2.823111
C 3.058134 5.089984 -2.339019
C 2.155359 5.714693 -2.847241
C 1.189796 6.438329 -3.573314
C 1.583190 7.535152 -4.319228
C 0.678609 8.207054 -5.148154
C -0.618912 7.776727 -5.271387
C -1.066872 6.672929 -4.523111
C -2.380351 6.161600 -4.624958
C -2.760431 5.106008 -3.848864
N -1.927201 4.549064 -2.935757
C -0.682957 4.974787 -2.836069
C -0.172525 6.014306 -3.629534
H 2.609013 7.867131 -4.272304
H 1.020683 9.060574 -5.713202
H -1.304356 8.274136 -5.939503
H -3.069973 6.610915 -5.321518
H -3.751621 4.664556 -3.928633
H -0.049144 4.496653 -2.093176
C 4.115620 4.306714 -1.828686
C 5.438792 4.733745 -1.980267
C 6.472991 3.923010 -1.549790
C 6.212538 2.690404 -0.975072
C 4.895985 2.252507 -0.811767
C 3.852434 3.074713 -1.233220
H 5.645865 5.688246 -2.439220
H 7.494233 4.250259 -1.673125
H 7.037758 2.058384 -0.687449
H 2.826357 2.779224 -1.083809
C 4.600268 0.943911 -0.221051
C 5.399315 0.379686 0.778572
C 5.040502 -0.829157 1.339123
N 3.934856 -1.482069 0.969299
C 3.176222 -0.981554 -0.013900
C 3.480978 0.208606 -0.634554
H 6.277749 0.892029 1.135669
H 5.640334 -1.297505 2.114126
H 2.305279 -1.574312 -0.289712
H 2.869538 0.567202 -1.446568
C -1.033631 5.040633 3.783343
C -1.844631 5.678864 3.151836
C -2.880720 6.412979 2.543267
C -3.414657 7.507725 3.199321
C -4.523227 8.188097 2.684594
C -5.135194 7.768359 1.529983
C -4.620301 6.666721 0.822632
C -5.219067 6.165092 -0.354940
C -4.652433 5.110473 -1.009119
N -3.492700 4.545779 -0.592132
C -2.922465 4.962898 0.521534
C -3.455624 5.999936 1.302988
H -2.977754 7.831500 4.131657
H -4.910678 9.039975 3.222366
H -6.012312 8.272301 1.155478
H -6.124445 6.620731 -0.723202
H -5.107496 4.675821 -1.896491
H -1.995212 4.479595 0.820148
C -0.164153 4.241311 4.556345
C 0.171185 4.630812 5.857133
C 0.956693 3.803046 6.638013
C 1.409913 2.589946 6.147713
C 1.088475 2.190026 4.848158
C 0.308267 3.029956 4.055428
H -0.191306 5.569582 6.246987
H 1.209674 4.101087 7.644106
H 1.983771 1.942873 6.791838
H 0.079340 2.765526 3.035532
C 1.542934 0.900521 4.319206
C 2.766969 0.333112 4.688244
C 3.165937 -0.859726 4.120844
N 2.424559 -1.493815 3.207953
C 1.232600 -0.989051 2.865530
C 0.758564 0.186010 3.403386
H 3.414603 0.830761 5.391514
H 4.107525 -1.330476 4.388386
H 0.664672 -1.565340 2.136358
H -0.219898 0.548118 3.132865
