372
cid:69, pot: -240.9463393037862
Pd -2.297723 5.800812 3.088379
Pd 2.136604 -5.903565 -2.921836
C 5.329741 0.917087 -1.268307
C 5.731631 -0.112761 -1.759936
C 6.175818 -1.344581 -2.275484
C 7.525335 -1.611297 -2.430285
C 7.966135 -2.858541 -2.887030
C 7.075591 -3.861605 -3.173085
C 5.690823 -3.628920 -3.032925
C 4.727721 -4.629911 -3.263439
N 3.435719 -4.414781 -3.133772
C 2.981879 -3.178324 -2.806702
C 3.833399 -2.146469 -2.534439
C 5.226008 -2.351784 -2.607875
H 8.247645 -0.846248 -2.188844
H 9.025810 -3.028481 -2.999916
H 7.421236 -4.827794 -3.504308
H 5.036673 -5.631186 -3.553124
H 1.899546 -3.068577 -2.775554
H 3.460942 -1.173454 -2.257487
C 4.845721 2.103726 -0.685623
C 5.727700 3.132508 -0.335114
C 5.249025 4.289635 0.238681
C 3.877793 4.442636 0.477882
C 2.997097 3.411375 0.131513
C 3.474776 2.256529 -0.445270
H 6.784921 3.015476 -0.521111
H 5.928225 5.085622 0.505237
H 1.941065 3.536842 0.308445
H 2.797604 1.463397 -0.719860
C 3.392851 5.640981 1.034593
C 2.969462 6.680983 1.486639
C 2.524500 7.940637 1.925976
C 3.383802 9.025012 1.885963
C 2.948409 10.304147 2.244753
C 1.649334 10.526669 2.629762
C 0.743066 9.453355 2.695952
C -0.610786 9.614655 3.068498
C -1.432087 8.527010 3.132770
N -0.985873 7.272066 2.877897
C 0.264112 7.083444 2.503378
C 1.181174 8.137264 2.368028
H 4.402696 8.880522 1.560431
H 3.646490 11.126223 2.201479
H 1.310796 11.518939 2.883460
H -0.982754 10.600654 3.296714
H -2.484866 8.619590 3.393575
H 0.577976 6.060822 2.305697
C 3.293093 -2.528810 3.919320
C 3.721852 -3.521182 3.376208
C 4.238418 -4.637394 2.690969
C 5.346842 -5.318366 3.163066
C 5.894910 -6.388521 2.446267
C 5.362181 -6.781250 1.245353
C 4.225841 -6.118798 0.733713
C 3.656019 -6.445191 -0.511712
N 2.592564 -5.832746 -0.988242
C 1.975273 -4.873156 -0.254096
C 2.465039 -4.461086 0.952078
C 3.634418 -5.053446 1.470633
H 5.799771 -5.012570 4.093946
H 6.758133 -6.897282 2.846780
H 5.800937 -7.592388 0.686521
H 4.096805 -7.225474 -1.127684
H 1.067352 -4.459704 -0.687732
H 1.973085 -3.686036 1.517551
C 2.774256 -1.369798 4.528196
C 2.979901 -1.128545 5.891179
C 2.448729 -0.003349 6.482088
C 1.705065 0.908431 5.722254
C 1.518351 0.676610 4.354710
C 2.043387 -0.450989 3.765182
H 3.548995 -1.833708 6.478506
H 2.598288 0.178819 7.535864
H 0.957015 1.386618 3.769175
H 1.899165 -0.635702 2.712518
C 1.126460 2.027064 6.350816
C 0.597210 2.962304 6.908149
C -0.039980 3.980433 7.639496
C 0.155297 4.065619 9.007427
C -0.515067 5.023195 9.774229
C -1.402777 5.896739 9.196033
C -1.628794 5.852106 7.808755
C -2.542074 6.708926 7.153496
C -2.703461 6.623630 5.801397
N -1.990194 5.753220 5.045121
C -1.143655 4.923032 5.621615
C -0.927527 4.903637 7.008221
H 0.829997 3.374495 9.489034
H -0.336463 5.060780 10.837964
H -1.934098 6.620506 9.793806
H -3.106887 7.422052 7.732351
H -3.414468 7.252606 5.268750
H -0.595741 4.239708 4.976092
C -5.581836 -0.916619 1.185439
C -5.981181 0.121968 1.660393
C -6.417865 1.363425 2.160517
C -7.765031 1.669117 2.243211
C -8.193259 2.927402 2.682100
C -7.290620 3.901404 3.024088
C -5.907653 3.626594 2.962873
C -4.929467 4.594502 3.260337
N -3.639103 4.338732 3.209749
C -3.205587 3.090482 2.901699
C -4.070810 2.088527 2.567142
C -5.458125 2.338395 2.554973
H -8.495184 0.927810 1.956063
H -9.252033 3.128857 2.735968
H -7.625129 4.876265 3.341227
H -5.224659 5.603457 3.538556
H -2.128712 2.942669 2.942836
H -3.711369 1.105338 2.309042
C -5.088276 -2.115120 0.634689
C -3.797093 -2.152406 0.094399
C -3.299652 -3.323423 -0.431025
C -4.078282 -4.486402 -0.421740
C -5.375321 -4.444932 0.105206
C -5.875972 -3.271622 0.625081
H -3.199589 -1.254711 0.092637
H -2.306763 -3.354413 -0.849451
H -5.978562 -5.340439 0.106258
H -6.874271 -3.241560 1.035832
C -3.562996 -5.704500 -0.903241
C -3.113920 -6.765449 -1.274893
C -2.643004 -8.044682 -1.620609
C -3.481070 -9.139514 -1.496461
C -3.024372 -10.432739 -1.767044
C -1.723951 -10.658276 -2.146094
C -0.837573 -9.576297 -2.291683
C 0.517015 -9.740074 -2.660333
C 1.320521 -8.646131 -2.798738
N 0.855975 -7.385026 -2.620063
C -0.396278 -7.191805 -2.255558
C -1.297384 -8.248412 -2.052234
H -4.501163 -8.990733 -1.176879
H -3.706926 -11.262069 -1.660992
H -1.369328 -11.659477 -2.333701
H 0.903882 -10.732950 -2.825837
H 2.373415 -8.738240 -3.059309
H -0.724492 -6.163406 -2.120272
C -3.214058 2.555457 -3.844860
C -3.633262 3.558875 -3.314485
C -4.144309 4.686006 -2.644390
C -5.202442 5.410421 -3.165854
C -5.747158 6.494561 -2.468400
C -5.264231 6.857658 -1.237185
C -4.183240 6.147819 -0.672483
C -3.672508 6.438400 0.607081
N -2.663884 5.777993 1.135266
C -2.044731 4.800919 0.425521
C -2.480083 4.422630 -0.811933
C -3.592579 5.068146 -1.388828
H -5.616376 5.129584 -4.122404
H -6.568586 7.038799 -2.908465
H -5.701358 7.680354 -0.694263
H -4.115623 7.229250 1.207250
H -1.184258 4.342770 0.909344
H -1.991267 3.632241 -1.358304
C -2.724217 1.378222 -4.441496
C -1.732657 0.627915 -3.797733
C -1.255996 -0.528222 -4.372651
C -1.756187 -0.959764 -5.606612
C -2.748554 -0.210211 -6.250208
C -3.228309 0.944856 -5.673355
H -1.343802 0.966619 -2.850536
H -0.485054 -1.102790 -3.884983
H -3.133632 -0.542831 -7.202634
H -3.992349 1.523612 -6.170480
C -1.248115 -2.121375 -6.218130
C -0.789249 -3.104697 -6.754455
C -0.229204 -4.182576 -7.463221
C -0.489876 -4.325173 -8.815077
C 0.111704 -5.342101 -9.562403
C 0.994463 -6.218773 -8.981398
C 1.281745 -6.119066 -7.608400
C 2.191870 -6.977749 -6.951076
C 2.409345 -6.840052 -5.611164
N 1.753202 -5.915693 -4.866687
C 0.914912 -5.080205 -5.447638
C 0.648658 -5.110312 -6.825331
H -1.159228 -3.631556 -9.300552
H -0.115318 -5.422953 -10.614553
H 1.474611 -6.987594 -9.566172
H 2.709269 -7.734669 -7.518635
H 3.120537 -7.469404 -5.079262
H 0.413628 -4.352773 -4.812798
Pd -2.664315 5.950249 2.276458
Pd 3.090666 -6.185019 -1.243935
C -0.176894 -0.378316 -5.124268
C 0.355828 -1.417831 -5.439471
C 1.031345 -2.607565 -5.769234
C 1.425238 -2.870419 -7.070039
C 2.149016 -4.026188 -7.384739
C 2.509709 -4.921468 -6.410384
C 2.123856 -4.692764 -5.072415
C 2.502525 -5.546543 -4.018667
N 2.143303 -5.335209 -2.770204
C 1.341667 -4.284438 -2.461998
C 0.942417 -3.381331 -3.404858
C 1.352509 -3.541660 -4.743904
H 1.174497 -2.169177 -7.851490
H 2.434694 -4.200089 -8.410731
H 3.085734 -5.799672 -6.654594
H 3.122980 -6.417415 -4.215133
H 1.043145 -4.212191 -1.417956
H 0.320792 -2.540065 -3.144265
C -0.784980 0.831231 -4.738029
C -1.125278 1.791796 -5.697557
C -1.716074 2.975271 -5.313530
C -1.976932 3.226246 -3.960793
C -1.631809 2.267249 -3.001489
C -1.044869 1.082930 -3.385371
H -0.925823 1.597695 -6.740928
H -1.983100 3.714906 -6.053534
H -1.842978 2.460072 -1.962034
H -0.784642 0.339176 -2.649066
C -2.610422 4.423949 -3.579610
C -3.180676 5.440006 -3.251306
C -3.925620 6.590700 -2.937246
C -4.561592 7.293683 -3.945800
C -5.370258 8.396894 -3.656960
C -5.573231 8.804914 -2.361701
C -4.939032 8.127835 -1.304801
C -5.116919 8.484861 0.051130
C -4.454689 7.798732 1.027000
N -3.595000 6.789889 0.740642
C -3.421042 6.411085 -0.510177
C -4.082796 7.023538 -1.585745
H -4.439567 6.975775 -4.970029
H -5.850424 8.921168 -4.469108
H -6.216587 9.642141 -2.140788
H -5.779215 9.298091 0.301483
H -4.587249 8.033075 2.081727
H -2.725002 5.595365 -0.693425
C 5.232129 1.207606 -1.783431
C 5.710243 0.154592 -2.138802
C 6.208012 -1.084916 -2.583902
C 7.255003 -1.154690 -3.486214
C 7.705552 -2.386889 -3.974064
C 7.110012 -3.560193 -3.587934
C 6.045348 -3.532989 -2.661988
C 5.364393 -4.696819 -2.256877
N 4.374931 -4.674664 -1.388800
C 4.001681 -3.503675 -0.813877
C 4.576904 -2.314619 -1.160187
C 5.601629 -2.289754 -2.127868
H 7.724297 -0.243428 -3.824689
H 8.525987 -2.402245 -4.674717
H 7.446753 -4.505308 -3.982979
H 5.642189 -5.664590 -2.667719
H 3.220480 -3.576948 -0.060522
H 4.259348 -1.389374 -0.706724
C 4.653508 2.417853 -1.354858
C 5.392413 3.606071 -1.373010
C 4.824484 4.780315 -0.930153
C 3.503588 4.793643 -0.464781
C 2.758984 3.608577 -0.467268
C 3.328185 2.433753 -0.903517
H 6.412482 3.595439 -1.727077
H 5.396917 5.695908 -0.934333
H 1.738123 3.624027 -0.121159
H 2.759468 1.517400 -0.903972
C 2.954169 5.990864 0.031380
C 2.505222 7.014750 0.495677
C 2.082724 8.221688 1.080668
C 2.937472 9.310589 1.097048
C 2.575050 10.503643 1.729240
C 1.366793 10.625245 2.370089
C 0.462982 9.547827 2.374470
C -0.787902 9.599903 3.030432
C -1.625000 8.523628 2.983570
N -1.310551 7.396849 2.298000
C -0.144361 7.301649 1.690474
C 0.803906 8.336107 1.705348
H 3.902855 9.231937 0.620829
H 3.266688 11.332056 1.720218
H 1.099006 11.540113 2.874899
H -1.067206 10.492783 3.566438
H -2.585117 8.522119 3.496360
H 0.066646 6.377917 1.155736
C 0.347646 0.022050 6.189887
C -0.201585 1.054908 6.498611
C -0.892485 2.239463 6.817123
C -1.360573 2.473941 8.098141
C -2.101176 3.623798 8.396045
C -2.402058 4.542297 7.423294
C -1.935027 4.345049 6.106086
C -2.243274 5.227740 5.053421
N -1.803857 5.049102 3.825400
C -0.985858 4.004352 3.541847
C -0.651522 3.073859 4.483573
C -1.147944 3.199344 5.796953
H -1.158266 1.753759 8.876297
H -2.447600 3.774074 9.406900
H -2.990994 5.415776 7.653031
H -2.873613 6.095365 5.233435
H -0.614259 3.961234 2.520489
H -0.013150 2.239791 4.240224
C 0.986942 -1.171073 5.801288
C 0.952487 -1.573928 4.460749
C 1.588588 -2.729825 4.068270
C 2.280547 -3.506000 5.005080
C 2.302103 -3.110511 6.348562
C 1.660122 -1.957368 6.742905
H 0.421060 -0.970760 3.741940
H 1.561907 -3.043317 3.037314
H 2.830195 -3.712919 7.072520
H 1.681337 -1.650367 7.778066
C 2.983348 -4.659479 4.609374
C 3.626065 -5.628326 4.272104
C 4.451006 -6.720940 3.950730
C 5.153104 -7.367143 4.953669
C 6.033269 -8.412924 4.660317
C 6.242578 -8.818280 3.365189
C 5.546813 -8.195694 2.313624
C 5.729227 -8.551460 0.957945
C 5.010990 -7.917269 -0.013397
N 4.094036 -6.961963 0.277684
C 3.909840 -6.587779 1.528376
C 4.620574 -7.150590 2.599740
H 5.023857 -7.050941 5.977452
H 6.562347 -8.894387 5.468508
H 6.938270 -9.611397 3.140555
H 6.439926 -9.321729 0.704190
H 5.143479 -8.151111 -1.068306
H 3.166480 -5.815495 1.714726
C -4.907315 -1.421076 2.547387
C -5.399589 -0.370198 2.889702
C -5.913849 0.865257 3.325330
C -7.013402 0.927577 4.164089
C -7.485888 2.154588 4.643464
C -6.860222 3.329995 4.315295
C -5.738686 3.310289 3.458961
C -5.022594 4.474925 3.122429
N -3.976768 4.458740 2.323350
C -3.574661 3.294721 1.753212
C -4.182707 2.105573 2.036268
C -5.271483 2.073061 2.931075
H -7.508959 0.014305 4.456640
H -8.348653 2.164466 5.291657
H -7.215223 4.270889 4.704442
H -5.318771 5.437723 3.531396
H -2.738766 3.375264 1.060929
H -3.842399 1.184493 1.591277
C -4.313850 -2.634800 2.151823
C -3.131656 -2.623673 1.401564
C -2.542696 -3.807442 1.019137
C -3.123608 -5.030453 1.374088
C -4.305266 -5.041908 2.125272
C -4.892885 -3.857510 2.511178
H -2.690186 -1.679913 1.123189
H -1.638286 -3.802613 0.432439
H -4.753696 -5.985636 2.398159
H -5.804964 -3.866491 3.089023
C -2.547091 -6.244685 0.955959
C -2.064744 -7.285911 0.570979
C -1.600701 -8.516923 0.073885
C -2.417284 -9.632976 0.132578
C -2.013741 -10.851981 -0.420433
C -0.802397 -10.973652 -1.055560
C 0.065102 -9.869348 -1.130298
C 1.317933 -9.921252 -1.782570
C 2.121013 -8.818294 -1.800298
N 1.771805 -7.663697 -1.180519
C 0.600674 -7.568077 -0.582536
C -0.316516 -8.629539 -0.539566
H -3.385710 -9.555519 0.602536
H -2.676732 -11.701291 -0.355790
H -0.504430 -11.909573 -1.501529
H 1.626388 -10.835505 -2.263914
H 3.080950 -8.817593 -2.313324
H 0.360529 -6.622319 -0.101651
