372
cid:69, pot: -223.33405529096015
Pd 0.426319 7.007736 0.593784
Pd -0.921939 -6.770988 -0.458523
C 5.034913 -1.877468 -0.313786
C 4.924767 -3.081039 -0.369338
C 4.757346 -4.478319 -0.376411
C 5.825409 -5.328703 -0.147531
C 5.644824 -6.715528 -0.096084
C 4.400707 -7.272421 -0.247989
C 3.286247 -6.440620 -0.487690
C 1.976581 -6.944452 -0.604360
N 0.935901 -6.170409 -0.828427
C 1.106269 -4.834963 -0.999697
C 2.330377 -4.242822 -0.877780
C 3.461422 -5.030635 -0.582830
H 6.811057 -4.913624 -0.000793
H 6.501770 -7.347426 0.079646
H 4.263378 -8.340144 -0.186271
H 1.788333 -8.010224 -0.501334
H 0.204900 -4.273447 -1.237803
H 2.450021 -3.178169 -0.997711
C 5.142617 -0.475771 -0.239262
C 6.388221 0.129868 -0.037248
C 6.487087 1.501618 0.039176
C 5.341940 2.298485 -0.081445
C 4.096088 1.691785 -0.278586
C 3.997574 0.321236 -0.358691
H 7.271648 -0.484329 0.054007
H 7.448243 1.969854 0.190483
H 3.218146 2.309093 -0.380564
H 3.039947 -0.148474 -0.517884
C 5.455650 3.700633 -0.034781
C 5.553640 4.907066 -0.023683
C 5.737296 6.299469 -0.095958
C 7.008429 6.816122 -0.278057
C 7.213673 8.190748 -0.428924
C 6.157755 9.068416 -0.419895
C 4.849275 8.590523 -0.227017
C 3.716806 9.436229 -0.222715
C 2.476353 8.909726 -0.008914
N 2.286986 7.588963 0.233318
C 3.315272 6.764024 0.213098
C 4.627405 7.195629 -0.035669
H 7.851988 6.143850 -0.316149
H 8.218977 8.557850 -0.568916
H 6.317485 10.125980 -0.559945
H 3.845416 10.493366 -0.391708
H 1.581587 9.529521 -0.022363
H 3.116724 5.712582 0.409038
C 1.357766 -1.940682 5.109147
C 1.291517 -3.143741 5.000214
C 1.250813 -4.539009 4.816116
C 1.879955 -5.397378 5.700755
C 1.890310 -6.779635 5.480143
C 1.294729 -7.322626 4.370785
C 0.634207 -6.482352 3.449082
C 0.039600 -6.971259 2.270215
N -0.582228 -6.190244 1.412047
C -0.706666 -4.863561 1.667504
C -0.139966 -4.284408 2.766576
C 0.582463 -5.078219 3.680467
H 2.377432 -4.992315 6.568875
H 2.388879 -7.418135 6.192989
H 1.323865 -8.385977 4.194204
H 0.087935 -8.031123 2.031663
H -1.288051 -4.297116 0.943325
H -0.233300 -3.225847 2.948835
C 1.420485 -0.537346 5.208874
C 1.648750 0.079255 6.444152
C 1.685490 1.453231 6.534853
C 1.500524 2.241043 5.391671
C 1.293597 1.622515 4.153373
C 1.250255 0.249669 4.063361
H 1.786497 -0.527585 7.326675
H 1.851613 1.930354 7.489187
H 1.164878 2.230730 3.272710
H 1.087566 -0.231411 3.111987
C 1.490597 3.643661 5.509066
C 1.440720 4.847414 5.626915
C 1.326641 6.229882 5.857643
C 1.471641 6.723743 7.142828
C 1.297976 8.083372 7.417739
C 0.959324 8.967946 6.423626
C 0.807442 8.513481 5.101503
C 0.442162 9.366561 4.035477
C 0.326136 8.864087 2.772326
N 0.578291 7.562182 2.489879
C 0.901352 6.730278 3.460317
C 1.014250 7.135779 4.799192
H 1.714091 6.044558 7.945788
H 1.420688 8.432375 8.431634
H 0.805503 10.012789 6.642979
H 0.254777 10.409820 4.233296
H 0.024832 9.488428 1.933120
H 1.091257 5.694141 3.187926
C -5.549432 2.145806 0.166590
C -5.432091 3.349346 0.204560
C -5.252753 4.745697 0.196006
C -6.296756 5.600603 -0.111135
C -6.099011 6.984607 -0.179798
C -4.860762 7.533056 0.035461
C -3.771704 6.696428 0.360844
C -2.467722 7.191301 0.552957
N -1.451605 6.413638 0.862414
C -1.646362 5.084112 1.050537
C -2.865308 4.499438 0.858763
C -3.966403 5.290135 0.471966
H -7.275818 5.191555 -0.309201
H -6.937348 7.620323 -0.419686
H -4.708843 8.598006 -0.039563
H -2.263174 8.253337 0.439925
H -0.771363 4.520211 1.366120
H -3.002139 3.438877 0.996474
C -5.655930 0.742078 0.127363
C -4.511622 -0.036641 -0.083863
C -4.602934 -1.409928 -0.107132
C -5.838839 -2.037147 0.087820
C -6.985660 -1.257424 0.284128
C -6.895814 0.117067 0.300859
H -3.560992 0.450998 -0.230089
H -3.723941 -2.011754 -0.271596
H -7.940264 -1.741082 0.427792
H -7.779626 0.717579 0.457318
C -5.938905 -3.440656 0.123494
C -6.028166 -4.645543 0.198901
C -6.202859 -6.030486 0.369593
C -7.464393 -6.533651 0.637511
C -7.661899 -7.896312 0.879097
C -6.606517 -8.774836 0.876805
C -5.307532 -8.310732 0.603338
C -4.175780 -9.157355 0.603563
C -2.944359 -8.645536 0.315233
N -2.764460 -7.340106 -0.003522
C -3.792072 -6.514112 0.005520
C -5.094825 -6.929630 0.321636
H -8.306684 -5.859526 0.668517
H -8.660062 -8.252760 1.082887
H -6.759571 -9.822145 1.084358
H -4.297619 -10.203284 0.836043
H -2.049280 -9.264904 0.328780
H -3.600349 -5.474901 -0.253161
C -1.576403 2.148372 -5.046915
C -1.495897 3.351789 -4.951101
C -1.444426 4.748134 -4.783187
C -2.006349 5.602788 -5.716008
C -2.006185 6.988020 -5.516880
C -1.469918 7.538873 -4.381130
C -0.883111 6.702567 -3.407708
C -0.359102 7.199591 -2.199010
N 0.189264 6.421328 -1.290142
C 0.305864 5.088438 -1.517232
C -0.195454 4.502533 -2.643874
C -0.839828 5.294538 -3.615807
H -2.456456 5.192302 -6.607133
H -2.449261 7.623461 -6.268209
H -1.491369 8.605194 -4.222480
H -0.403705 8.263326 -1.978841
H 0.821896 4.523768 -0.743115
H -0.113081 3.439698 -2.804415
C -1.673850 0.746812 -5.135991
C -1.188729 -0.055722 -4.096192
C -1.288842 -1.426215 -4.174395
C -1.872567 -2.027320 -5.295562
C -2.358764 -1.225006 -6.335149
C -2.261974 0.146632 -6.255493
H -0.732815 0.409765 -3.236788
H -0.906860 -2.047676 -3.380559
H -2.808219 -1.689004 -7.200442
H -2.635439 0.765125 -7.057890
C -1.945855 -3.429214 -5.399271
C -1.981674 -4.635058 -5.498167
C -1.964837 -6.025807 -5.706389
C -2.195322 -6.533412 -6.973281
C -2.111205 -7.905690 -7.226883
C -1.778527 -8.789708 -6.230278
C -1.545987 -8.321014 -4.924963
C -1.184465 -9.173531 -3.857135
C -0.993704 -8.656066 -2.609153
N -1.169498 -7.338186 -2.341763
C -1.482576 -6.507052 -3.316172
C -1.663434 -6.928891 -4.642512
H -2.431696 -5.855867 -7.779434
H -2.297553 -8.265613 -8.227295
H -1.691679 -9.845256 -6.434887
H -1.060068 -10.228679 -4.041362
H -0.692378 -9.281072 -1.770482
H -1.610064 -5.458207 -3.057067
Pd 1.878118 6.692809 0.668023
Pd -1.479964 -6.753322 -0.170151
C -5.415477 -0.216468 0.940249
C -5.718085 -1.382847 0.831983
C -6.035651 -2.741118 0.645467
C -7.340706 -3.147969 0.427198
C -7.645809 -4.491804 0.182838
C -6.658553 -5.442308 0.129384
C -5.315651 -5.069647 0.350943
C -4.250874 -5.986782 0.262477
N -2.997776 -5.641276 0.469199
C -2.693541 -4.367263 0.824250
C -3.648277 -3.395049 0.909500
C -4.995034 -3.712753 0.640735
H -8.133302 -2.415234 0.440217
H -8.675287 -4.772505 0.021917
H -6.896332 -6.472915 -0.080367
H -4.442646 -7.025909 0.006704
H -1.642670 -4.176410 1.033065
H -3.391548 -2.382143 1.174386
C -5.044304 1.136730 1.054449
C -6.019310 2.140940 1.064733
C -5.650170 3.463546 1.172321
C -4.297314 3.811990 1.268771
C -3.322737 2.807493 1.253434
C -3.691581 1.485496 1.149737
H -7.062700 1.872328 0.992156
H -6.401925 4.238578 1.184943
H -2.282833 3.079091 1.337548
H -2.943176 0.709029 1.145089
C -3.930006 5.163257 1.411122
C -3.612384 6.321537 1.562278
C -3.307070 7.668286 1.828216
C -4.313787 8.538566 2.208950
C -4.030179 9.863719 2.552436
C -2.741204 10.336772 2.540676
C -1.686876 9.492000 2.150246
C -0.336649 9.909349 2.130997
C 0.636056 9.044797 1.721072
N 0.350506 7.789201 1.295898
C -0.893951 7.354538 1.322309
C -1.964146 8.148751 1.762503
H -5.331905 8.182826 2.252389
H -4.840705 10.513989 2.844333
H -2.523276 11.353181 2.828912
H -0.087989 10.910674 2.444315
H 1.687404 9.326901 1.716331
H -1.076622 6.339688 0.975667
C -2.303536 -0.644287 -4.810113
C -2.644067 -1.804103 -4.860964
C -3.069511 -3.146214 -4.859129
C -4.003751 -3.603308 -5.772083
C -4.470544 -4.922167 -5.727117
C -4.031118 -5.794821 -4.764939
C -3.071449 -5.370667 -3.821140
C -2.610492 -6.203318 -2.783584
N -1.710992 -5.811928 -1.905633
C -1.158014 -4.576786 -2.004147
C -1.557439 -3.681507 -2.954728
C -2.558976 -4.043301 -3.878369
H -4.383808 -2.928570 -6.524071
H -5.197359 -5.243604 -6.456969
H -4.409697 -6.803521 -4.721351
H -3.002239 -7.212059 -2.676247
H -0.377296 -4.351372 -1.281059
H -1.120562 -2.697398 -3.011443
C -1.891070 0.699538 -4.725373
C -1.968074 1.539733 -5.841758
C -1.540655 2.846342 -5.754584
C -1.032192 3.343357 -4.547955
C -0.975707 2.507855 -3.426541
C -1.396551 1.200344 -3.514965
H -2.355413 1.155673 -6.773683
H -1.590294 3.492801 -6.618086
H -0.596431 2.896574 -2.495287
H -1.351644 0.551763 -2.654460
C -0.552798 4.665487 -4.488525
C -0.103576 5.789225 -4.458855
C 0.460060 7.075839 -4.524869
C 0.416569 7.782073 -5.714788
C 1.025763 9.034722 -5.833724
C 1.702661 9.594553 -4.778378
C 1.768193 8.917075 -3.547747
C 2.463614 9.427733 -2.428226
C 2.475702 8.726433 -1.258043
N 1.812864 7.552118 -1.116108
C 1.169893 7.032608 -2.143165
C 1.123359 7.654249 -3.400517
H -0.089022 7.352560 -6.566159
H 0.969837 9.556733 -6.776640
H 2.189480 10.551757 -4.879848
H 2.982616 10.369069 -2.512326
H 3.019967 9.079860 -0.384175
H 0.655320 6.087227 -1.984353
C 5.858703 0.135618 -0.161766
C 6.155579 1.301665 -0.035447
C 6.462566 2.660503 0.167735
C 7.751140 3.067437 0.466192
C 8.040194 4.411595 0.729057
C 7.051881 5.362140 0.718340
C 5.726112 4.989755 0.408936
C 4.659241 5.908393 0.421312
N 3.422954 5.564671 0.127227
C 3.142630 4.290721 -0.246264
C 4.099182 3.316435 -0.261105
C 5.424175 3.632492 0.101732
H 8.542601 2.334512 0.505270
H 9.057251 4.692014 0.955728
H 7.275767 6.392795 0.942425
H 4.834998 6.947823 0.688146
H 2.111150 4.100934 -0.534615
H 3.858915 2.304439 -0.544906
C 5.483660 -1.213591 -0.310872
C 4.157195 -1.596645 -0.077881
C 3.777308 -2.910053 -0.237280
C 4.712602 -3.869878 -0.640800
C 6.042648 -3.488982 -0.859237
C 6.424673 -2.175988 -0.693444
H 3.439346 -0.852902 0.229449
H 2.757289 -3.208002 -0.056600
H 6.765730 -4.230733 -1.163947
H 7.449263 -1.882050 -0.866864
C 4.327203 -5.205200 -0.863083
C 3.996852 -6.345807 -1.098417
C 3.679894 -7.667451 -1.459541
C 4.677164 -8.508797 -1.922139
C 4.385012 -9.806334 -2.352774
C 3.095881 -10.279193 -2.347884
C 2.050503 -9.462878 -1.880653
C 0.700341 -9.880685 -1.866087
C -0.264479 -9.044230 -1.385427
N 0.029239 -7.817764 -0.887780
C 1.274042 -7.383707 -0.902979
C 2.336977 -8.149418 -1.406545
H 5.695125 -8.152042 -1.958216
H 5.188722 -10.434443 -2.705526
H 2.871222 -11.273463 -2.700642
H 0.445431 -10.859517 -2.239862
H -1.316021 -9.325844 -1.380795
H 1.462641 -6.392191 -0.496706
C 2.436147 0.636347 5.406035
C 2.764167 1.799097 5.471391
C 3.180813 3.143253 5.486776
C 4.053525 3.611460 6.454026
C 4.512730 4.933289 6.431723
C 4.130146 5.797873 5.438315
C 3.237914 5.361179 4.435937
C 2.844278 6.182898 3.362509
N 2.011662 5.777718 2.427029
C 1.462304 4.538708 2.495943
C 1.799631 3.654271 3.479761
C 2.730715 4.031013 4.468859
H 4.388634 2.943661 7.233112
H 5.188701 5.264144 7.205166
H 4.503563 6.809153 5.413508
H 3.234907 7.193620 3.274170
H 0.740570 4.301205 1.716742
H 1.370341 2.665944 3.513423
C 2.056264 -0.715595 5.307352
C 1.267097 -1.143901 4.232937
C 0.899625 -2.466094 4.127101
C 1.308852 -3.390839 5.094874
C 2.098934 -2.963020 6.168869
C 2.469820 -1.640673 6.273085
H 0.947070 -0.427911 3.492660
H 0.283280 -2.797383 3.307002
H 2.413708 -3.676545 6.915847
H 3.077695 -1.310614 7.102195
C 0.907004 -4.737462 5.013100
C 0.536411 -5.888261 4.955278
C 0.059901 -7.211031 4.987627
C 0.177907 -7.955259 6.148671
C -0.352802 -9.245791 6.235375
C -1.024084 -9.806718 5.176939
C -1.159474 -9.092093 3.973358
C -1.851278 -9.603240 2.851808
C -1.927532 -8.865726 1.706371
N -1.330069 -7.653890 1.589512
C -0.696479 -7.132343 2.621417
C -0.592411 -7.789535 3.857157
H 0.677378 -7.525854 7.003568
H -0.241658 -9.796813 7.156834
H -1.452515 -10.793584 5.255447
H -2.316023 -10.574227 2.914193
H -2.472003 -9.219845 0.832972
H -0.235373 -6.156696 2.484039
