336
cid:59, pot: -292.1642336008357
C -0.850606 -0.772179 4.083551
C -2.221760 -1.239814 4.229441
C -0.559527 0.581748 4.200022
C 0.755039 1.037510 4.100827
H -1.338694 1.305717 4.383146
C 1.777420 0.124116 3.873247
C 1.500586 -1.237901 3.754177
H 2.805163 0.444967 3.798101
C 0.185996 -1.677236 3.855220
C 2.578223 -2.196891 3.556336
H -0.059432 -2.725116 3.773882
C 1.061463 2.451659 4.263739
H 2.265524 -3.226191 3.321193
H -2.994569 -0.455899 4.254761
H 2.093669 2.748602 4.021394
C -3.350143 -2.569244 -0.045736
C -3.394367 -3.324206 1.198478
C -2.650077 -3.067324 -1.138143
C -2.632274 -2.373339 -2.348007
H -2.118920 -4.004988 -1.079304
C -3.315028 -1.167302 -2.451576
C -4.022045 -0.654839 -1.363716
H -3.325477 -0.610086 -3.375755
C -4.030933 -1.357514 -0.164695
C -4.769407 0.588612 -1.487924
H -4.573840 -0.990258 0.692767
C -1.931730 -2.918334 -3.502227
H -5.169484 1.002462 -0.549281
H -2.710792 -4.185268 1.259629
H -1.834906 -2.242764 -4.366260
C 3.963621 -1.359410 -0.767723
C 4.737558 -1.365106 0.465536
C 3.981869 -0.243690 -1.596188
C 3.276456 -0.239789 -2.799490
H 4.551191 0.635191 -1.335065
C 2.542069 -1.362472 -3.162231
C 2.514187 -2.489691 -2.340950
H 1.991079 -1.392628 -4.089707
C 3.222116 -2.479087 -1.144962
C 1.776530 -3.678996 -2.743136
H 3.225311 -3.338012 -0.491375
C 3.330969 0.915516 -3.684098
H 1.676873 -4.462578 -1.976150
H 5.167063 -0.396404 0.764837
H 2.629592 0.902166 -4.532773
C -0.657713 4.358415 0.426648
C -0.932638 4.678304 1.820289
C -1.703153 4.057828 -0.438236
C -1.457116 3.787957 -1.784484
H -2.725286 4.040589 -0.092377
C -0.150188 3.811640 -2.256193
C 0.909466 4.111557 -1.399922
H 0.071834 3.613386 -3.293606
C 0.649087 4.378454 -0.061099
C 2.273248 4.175089 -1.906220
H 1.446665 4.620072 0.624627
C -2.558700 3.513571 -2.696309
H 3.063071 4.263834 -1.144127
H -1.963215 4.490427 2.159547
H -2.273250 3.160484 -3.699357
C -3.854694 -2.883187 4.510707
C -4.216601 -3.804919 3.328527
N -2.498299 -2.463869 4.348421
N -4.187786 -3.025502 2.131190
C -5.629205 -4.363897 3.518876
H -3.484025 -4.631965 3.300582
C -5.744283 -5.123262 4.834933
H -5.864189 -5.019585 2.677703
H -6.334007 -3.530808 3.501133
C -5.383948 -4.213907 6.004782
H -5.067631 -5.980865 4.820348
H -6.762149 -5.500363 4.952623
C -3.977649 -3.654739 5.827500
H -5.441778 -4.769214 6.943113
H -6.099194 -3.389795 6.057244
H -3.247372 -4.465658 5.820309
H -3.726329 -2.984586 6.652363
H -4.554814 -2.028159 4.507060
C 4.819220 -2.845161 3.495533
C 5.710664 -2.388778 2.322776
N 3.789817 -1.870830 3.676819
N 4.926225 -2.420277 1.128795
C 6.891079 -3.350649 2.162546
H 6.080236 -1.371842 2.547473
C 7.708150 -3.432527 3.446025
H 7.514372 -3.007174 1.334099
H 6.499453 -4.335222 1.901064
C 6.827426 -3.880958 4.607357
H 8.132341 -2.451078 3.670392
H 8.534874 -4.132768 3.310110
C 5.650837 -2.928094 4.778427
H 7.410569 -3.912429 5.529892
H 6.453929 -4.888604 4.411222
H 6.008970 -1.926165 5.021308
H 5.005732 -3.260357 5.594638
H 4.407300 -3.840240 3.247459
C 0.547534 4.651081 4.851017
C -0.366933 5.488335 3.934076
N 0.203845 3.274119 4.684182
N -0.051739 5.167109 2.577857
C -0.105413 6.979717 4.161026
H -1.416498 5.247130 4.182406
C -0.330427 7.358812 5.619586
H -0.766823 7.555607 3.510245
H 0.923594 7.196761 3.869235
C 0.571242 6.529736 6.527903
H -1.375159 7.180314 5.884694
H -0.125801 8.422414 5.757478
C 0.316482 5.043012 6.312952
H 0.387559 6.785574 7.573333
H 1.616585 6.755646 6.305158
H -0.713002 4.794603 6.576943
H 0.977768 4.446790 6.945515
H 1.596496 4.852390 4.567198
C -0.827382 -4.606848 -4.675096
C 0.607864 -5.000532 -4.271087
N -1.491870 -4.099493 -3.516352
N 1.309189 -3.810042 -3.906416
C 1.322590 -5.649514 -5.459442
H 0.544713 -5.716391 -3.431564
C 0.559675 -6.871518 -5.955838
H 2.332802 -5.928704 -5.152320
H 1.407559 -4.908428 -6.256141
C -0.860790 -6.484342 -6.353092
H 0.522682 -7.623458 -5.164260
H 1.082169 -7.307736 -6.809641
C -1.583135 -5.840782 -5.175911
H -1.411934 -7.367311 -6.682755
H -0.824842 -5.779622 -7.187161
H -1.667398 -6.550610 -4.351250
H -2.592827 -5.541229 -5.464860
H -0.763499 -3.851208 -5.478957
C -5.723168 2.346466 -2.690990
C -4.814057 3.438063 -3.291287
N -4.967606 1.136677 -2.605590
N -3.759987 3.698731 -2.362600
C -5.616332 4.725390 -3.500357
H -4.429741 3.071096 -4.260287
C -6.816881 4.480838 -4.406188
H -4.959097 5.482680 -3.933165
H -5.946918 5.086671 -2.525007
C -7.715318 3.399649 -3.815194
H -6.469889 4.164880 -5.392682
H -7.378299 5.409251 -4.528968
C -6.927724 2.112099 -3.606689
H -8.559922 3.208899 -4.480322
H -8.112725 3.742123 -2.856929
H -6.563819 1.733238 -4.563342
H -7.563135 1.343401 -3.161671
H -6.064953 2.691129 -1.698183
C 4.190347 2.963023 -4.402152
C 3.875945 4.242937 -3.601359
N 4.151586 1.854605 -3.501337
N 2.525792 4.158559 -3.140989
C 4.012243 5.469494 -4.507610
H 4.594443 4.310098 -2.764330
C 5.409677 5.552633 -5.109123
H 3.794547 6.365187 -3.921884
H 3.264481 5.396937 -5.299199
C 5.723157 4.286540 -5.899037
H 6.143713 5.671808 -4.308712
H 5.477118 6.426916 -5.759686
C 5.594387 3.059188 -5.005263
H 6.735023 4.338993 -6.305811
H 5.027844 4.200554 -6.737276
H 6.316680 3.109662 -4.188629
H 5.795426 2.149217 -5.574718
H 3.439242 2.867819 -5.207173
C -1.753184 0.822413 -3.884897
C -3.173250 1.125543 -3.777379
C -1.330923 -0.491901 -4.045128
C 0.023971 -0.790966 -4.188057
H -2.039648 -1.305171 -4.076577
C 0.955907 0.239498 -4.159028
C 0.547073 1.563593 -3.998876
H 2.010560 0.040830 -4.273361
C -0.806244 1.846317 -3.857615
C 1.522129 2.644936 -4.009491
H -1.154333 2.861066 -3.738508
C 0.459801 -2.164652 -4.396469
H 1.138721 3.637682 -3.726715
H -3.839832 0.257847 -3.654611
H 1.546587 -2.334483 -4.347573
C -3.648733 2.434301 0.624793
C -4.008534 3.144547 -0.594219
C -2.824184 3.039293 1.565861
C -2.503633 2.385497 2.755667
H -2.426967 4.029649 1.404271
C -3.009012 1.112504 2.990912
C -3.837821 0.492577 2.055657
H -2.784434 0.583488 3.904376
C -4.148703 1.156192 0.874837
C -4.398068 -0.824528 2.323402
H -4.792268 0.705609 0.134845
C -1.672830 3.038842 3.757120
H -4.911602 -1.307265 1.477377
H -3.453956 4.076259 -0.785857
H -1.340619 2.402965 4.592349
C 3.764343 2.091472 -0.011487
C 4.293347 2.151845 -1.366625
C 4.065202 1.008408 0.805952
C 3.597386 0.956858 2.118984
H 4.676602 0.193792 0.449207
C 2.814749 1.997503 2.604569
C 2.504458 3.091027 1.795997
H 2.443165 1.989860 3.617808
C 2.977774 3.128660 0.489732
C 1.718007 4.198507 2.320603
H 2.760105 3.963948 -0.158208
C 3.948571 -0.159754 2.985048
H 1.388074 4.944024 1.580701
H 4.771880 1.230819 -1.734482
H 3.417760 -0.203540 3.948733
C -0.291314 -4.149384 -0.296387
C -0.777033 -4.536989 -1.613185
C -1.188808 -3.946847 0.745182
C -0.734064 -3.613578 2.021058
H -2.251765 -4.056526 0.594297
C 0.630659 -3.474198 2.243058
C 1.543515 -3.674112 1.207252
H 1.013868 -3.223261 3.220207
C 1.075789 -4.005948 -0.058646
C 2.974753 -3.566923 1.452893
H 1.757204 -4.173359 -0.878657
C -1.674680 -3.442222 3.119284
H 3.616614 -3.585405 0.558391
H -1.867122 -4.477920 -1.756985
H -1.254086 -3.031155 4.050097
C -5.012084 2.562443 -3.761471
C -5.257522 3.468916 -2.538222
N -3.609114 2.306122 -3.850408
N -4.918456 2.731244 -1.362271
C -6.736940 3.856720 -2.467303
H -4.634802 4.374948 -2.651116
C -7.179563 4.561274 -3.743806
H -6.889570 4.504072 -1.601072
H -7.323471 2.949120 -2.314519
C -6.934860 3.667321 -4.954679
H -6.617476 5.490921 -3.859692
H -8.238988 4.815825 -3.673408
C -5.463967 3.278197 -5.037318
H -7.228445 4.186278 -5.869378
H -7.545496 2.765506 -4.869085
H -4.845399 4.167397 -5.170211
H -5.290706 2.618819 -5.890473
H -5.594042 1.633245 -3.623274
C 3.644171 3.547306 -4.368223
C 4.782640 3.228650 -3.377915
N 2.721032 2.456742 -4.350112
N 4.231815 3.202990 -2.059621
C 5.850788 4.323637 -3.444493
H 5.222013 2.255022 -3.661009
C 6.403728 4.463156 -4.857452
H 6.651219 4.076804 -2.743646
H 5.400440 5.263558 -3.120932
C 5.278752 4.775492 -5.838407
H 6.892286 3.531052 -5.150593
H 7.153028 5.257121 -4.880960
C 4.211294 3.689635 -5.783224
H 5.675366 4.848118 -6.853098
H 4.831413 5.738716 -5.582592
H 4.634402 2.729058 -6.082216
H 3.393136 3.923032 -6.467974
H 3.170324 4.495013 -4.054119
C 0.109772 -4.423892 -4.865488
C -0.516342 -5.334799 -3.790280
N -0.357334 -3.091310 -4.646139
N 0.001677 -4.942275 -2.517682
C -0.126964 -6.792074 -4.052854
H -1.614607 -5.222488 -3.841602
C -0.568874 -7.234520 -5.442289
H -0.585581 -7.421822 -3.287547
H 0.956350 -6.881576 -3.955097
C 0.047284 -6.332941 -6.506681
H -1.658108 -7.184370 -5.510635
H -0.269110 -8.271065 -5.609332
C -0.337143 -4.879857 -6.257113
H -0.293195 -6.636834 -7.498521
H 1.134948 -6.431274 -6.479780
H -1.419519 -4.758533 -6.327535
H 0.122291 -4.229358 -7.004604
H 1.209242 -4.495604 -4.779408
C -0.579186 4.874603 4.695384
C 0.701344 5.418986 4.030560
N -1.380059 4.262669 3.682603
N 1.459340 4.307158 3.549520
C 1.539982 6.178174 5.062231
H 0.401736 6.099410 3.212898
C 0.742277 7.317803 5.683992
H 2.436888 6.562741 4.571926
H 1.856015 5.473966 5.833833
C -0.525827 6.781445 6.339467
H 0.472724 8.038454 4.908433
H 1.357126 7.834475 6.423790
C -1.370506 6.027084 5.319991
H -1.107433 7.604164 6.760076
H -0.255086 6.108780 7.156630
H -1.687287 6.699612 4.520995
H -2.267822 5.621826 5.792585
H -0.280708 4.153720 5.478016
C -4.901732 -2.646291 3.692494
C -3.775970 -3.609448 4.120771
N -4.322403 -1.360702 3.461691
N -2.886435 -3.773066 3.014659
C -4.369117 -4.973999 4.482334
H -3.266746 -3.174278 4.999730
C -5.403909 -4.843877 5.593097
H -3.559227 -5.638731 4.790541
H -4.827737 -5.397586 3.587050
C -6.516321 -3.889571 5.172094
H -4.921899 -4.463158 6.496508
H -5.820040 -5.826827 5.823142
C -5.937423 -2.526461 4.813848
H -7.241414 -3.778574 5.980882
H -7.039241 -4.301619 4.305985
H -5.451781 -2.082045 5.684446
H -6.729596 -1.848158 4.489501
H -5.376426 -3.055130 2.782167
C 5.159935 -2.074617 3.543893
C 4.857264 -3.403684 2.822694
N 4.826678 -1.003212 2.659202
N 3.445284 -3.487440 2.619555
C 5.300631 -4.581144 3.695345
H 5.413260 -3.411113 1.867639
C 6.784447 -4.486789 4.028488
H 5.086452 -5.511617 3.165338
H 4.707120 -4.572926 4.611137
C 7.085848 -3.171782 4.739190
H 7.368434 -4.543089 3.106813
H 7.072317 -5.329380 4.660497
C 6.652025 -1.992456 3.877429
H 8.154082 -3.096669 4.952033
H 6.550491 -3.143041 5.691064
H 7.213483 -1.982271 2.941522
H 6.845283 -1.050105 4.394423
H 4.562954 -2.043981 4.473347
