372
cid:69, pot: -217.9523572275933
Pd -1.107083 7.205151 0.845679
Pd 2.555600 -6.127576 -0.419838
C 6.248979 0.382182 1.433152
C 6.565501 -0.783238 1.359601
C 6.881155 -2.154022 1.317342
C 8.060188 -2.634469 1.860804
C 8.343989 -4.004835 1.870433
C 7.452420 -4.914874 1.362529
C 6.240868 -4.465844 0.795180
C 5.262727 -5.349978 0.300983
N 4.132343 -4.933190 -0.229003
C 3.890273 -3.603847 -0.355583
C 4.760597 -2.664294 0.117398
C 5.956847 -3.071462 0.741985
H 8.767754 -1.940484 2.288659
H 9.275458 -4.342080 2.298411
H 7.666208 -5.971356 1.391564
H 5.418375 -6.424614 0.354371
H 2.959841 -3.341634 -0.855582
H 4.548361 -1.611170 0.027559
C 5.859063 1.731983 1.522105
C 6.721616 2.683994 2.077816
C 6.333161 4.002551 2.166267
C 5.071962 4.398169 1.703914
C 4.208162 3.444643 1.152794
C 4.597574 2.127661 1.060919
H 7.694898 2.379471 2.432777
H 6.999733 4.738418 2.590696
H 3.241812 3.754814 0.789185
H 3.936896 1.392237 0.630018
C 4.695172 5.752807 1.768031
C 4.379320 6.921006 1.795497
C 4.102312 8.299478 1.766827
C 5.125927 9.210056 1.964133
C 4.896457 10.585697 1.866973
C 3.652073 11.074510 1.554059
C 2.578926 10.187564 1.355599
C 1.277612 10.622142 1.015821
C 0.275922 9.709267 0.857979
N 0.475968 8.381347 1.046560
C 1.681127 7.934415 1.340072
C 2.788732 8.783868 1.486701
H 6.119174 8.849552 2.184333
H 5.718661 11.266345 2.027279
H 3.483949 12.135582 1.456946
H 1.089804 11.675432 0.881854
H -0.731405 10.008486 0.573916
H 1.796496 6.861694 1.479007
C 1.428956 -1.339426 5.524247
C 1.799891 -2.485538 5.412707
C 2.278918 -3.798030 5.238878
C 2.880369 -4.485146 6.278749
C 3.411335 -5.765755 6.085035
C 3.369241 -6.369468 4.854593
C 2.756037 -5.706156 3.770211
C 2.716486 -6.252339 2.473124
N 2.139842 -5.638200 1.461480
C 1.514840 -4.449648 1.655249
C 1.521833 -3.820159 2.866951
C 2.177513 -4.419130 3.961737
H 2.948169 -4.021379 7.251125
H 3.870760 -6.271972 6.919946
H 3.798696 -7.347230 4.705282
H 3.179566 -7.215128 2.270275
H 1.008036 -4.036895 0.785715
H 1.034597 -2.867980 3.002722
C 0.990895 -0.004736 5.623932
C 0.642418 0.539528 6.865123
C 0.193285 1.839014 6.948790
C 0.088023 2.624920 5.794234
C 0.457195 2.085941 4.556498
C 0.899817 0.785345 4.471523
H 0.718693 -0.067531 7.754919
H -0.085391 2.256934 7.904655
H 0.388062 2.697022 3.671138
H 1.182062 0.364528 3.519540
C -0.420163 3.934090 5.889288
C -0.898344 5.042875 5.974948
C -1.525577 6.289565 6.147604
C -1.922294 6.686948 7.413039
C -2.608040 7.889070 7.610480
C -2.925867 8.703702 6.551811
C -2.537997 8.344570 5.248662
C -2.849004 9.127397 4.113742
C -2.429577 8.729201 2.878019
N -1.690254 7.607326 2.696043
C -1.397269 6.839491 3.726953
C -1.808681 7.138464 5.035050
H -1.705282 6.052295 8.258581
H -2.900033 8.166935 8.611666
H -3.473456 9.620261 6.705236
H -3.420186 10.033638 4.236676
H -2.671085 9.296521 1.980982
H -0.805118 5.947436 3.533469
C -4.748166 0.744369 -1.282999
C -5.053236 1.913636 -1.224109
C -5.353443 3.288755 -1.193237
C -6.490217 3.788163 -1.804365
C -6.752776 5.162903 -1.825327
C -5.881579 6.057437 -1.258567
C -4.715489 5.588066 -0.616858
C -3.760799 6.455190 -0.052198
N -2.675441 6.019495 0.552106
C -2.462046 4.686419 0.687499
C -3.310470 3.761801 0.149251
C -4.454778 4.189488 -0.554217
H -7.179359 3.106561 -2.279353
H -7.650641 5.515438 -2.309109
H -6.077557 7.117165 -1.295962
H -3.897712 7.532416 -0.110280
H -1.576438 4.406590 1.253711
H -3.120084 2.705445 0.250941
C -4.366462 -0.610114 -1.337861
C -3.018295 -0.959237 -1.192884
C -2.637549 -2.281574 -1.228315
C -3.596354 -3.286297 -1.401797
C -4.942901 -2.935700 -1.561777
C -5.323519 -1.612113 -1.533037
H -2.283584 -0.181860 -1.055938
H -1.600123 -2.553003 -1.119027
H -5.681788 -3.710366 -1.702387
H -6.362584 -1.342750 -1.651384
C -3.230096 -4.645206 -1.383221
C -2.931341 -5.816881 -1.325495
C -2.676552 -7.194239 -1.200251
C -3.720257 -8.096690 -1.312884
C -3.513429 -9.466673 -1.126908
C -2.271147 -9.957067 -0.807709
C -1.179194 -9.078966 -0.688892
C 0.120500 -9.515043 -0.344994
C 1.139998 -8.612250 -0.260861
N 0.958146 -7.294987 -0.525177
C -0.243599 -6.845845 -0.829177
C -1.367136 -7.683140 -0.908865
H -4.710976 -7.733399 -1.539495
H -4.350771 -10.140686 -1.224273
H -2.119495 -11.012360 -0.644251
H 0.292740 -10.561267 -0.148498
H 2.147437 -8.910976 0.023384
H -0.343319 -5.781240 -1.029933
C 0.299097 2.484815 -5.085837
C -0.055420 3.637003 -4.982609
C -0.520544 4.955405 -4.821059
C -1.046660 5.664846 -5.887006
C -1.563080 6.953549 -5.710725
C -1.584430 7.543325 -4.472721
C -1.053489 6.855530 -3.360812
C -1.088592 7.384096 -2.056222
N -0.593294 6.744499 -1.017937
C 0.018705 5.545049 -1.186872
C 0.080579 4.932593 -2.405476
C -0.487864 5.560040 -3.532564
H -1.063533 5.213189 -6.867271
H -1.960680 7.478089 -6.565927
H -2.002890 8.527953 -4.338289
H -1.544408 8.353373 -1.869865
H 0.452001 5.108581 -0.289015
H 0.553238 3.970931 -2.523707
C 0.702308 1.139728 -5.185652
C 1.111769 0.445291 -4.040802
C 1.499187 -0.872320 -4.131334
C 1.490409 -1.525990 -5.368959
C 1.079993 -0.832124 -6.513924
C 0.688795 0.485374 -6.423000
H 1.124552 0.953515 -3.089667
H 1.825155 -1.407037 -3.253767
H 1.074191 -1.336349 -7.468785
H 0.373895 1.020783 -7.306190
C 1.919606 -2.862348 -5.475591
C 2.316013 -4.002239 -5.568507
C 2.852133 -5.289889 -5.748381
C 3.171325 -5.729242 -7.021522
C 3.774671 -6.973874 -7.225001
C 4.086235 -7.790116 -6.165728
C 3.770967 -7.390235 -4.854889
C 4.077896 -8.173895 -3.719367
C 3.725024 -7.736273 -2.476150
N 3.053361 -6.573536 -2.286103
C 2.770738 -5.802875 -3.317840
C 3.122883 -6.140139 -4.633926
H 2.961227 -5.093906 -7.868297
H 4.009221 -7.283619 -8.232045
H 4.572949 -8.739535 -6.324795
H 4.592507 -9.112734 -3.847852
H 3.966924 -8.304167 -1.579612
H 2.234284 -4.877661 -3.118691
Pd 3.257915 -5.839443 1.948677
Pd -2.294493 6.636778 -0.559784
C -4.908483 -0.615689 -0.702942
C -5.406795 0.471218 -0.887480
C -5.962756 1.755083 -1.039573
C -7.333921 1.941950 -1.075982
C -7.884622 3.225330 -1.167398
C -7.083034 4.337697 -1.200380
C -5.679934 4.190285 -1.169920
C -4.803049 5.291864 -1.152278
N -3.494138 5.156467 -1.124319
C -2.937850 3.919004 -1.155332
C -3.699236 2.785796 -1.144469
C -5.104814 2.888572 -1.117785
H -7.987054 1.083867 -1.027113
H -8.958035 3.331830 -1.198317
H -7.512619 5.325497 -1.249305
H -5.196479 6.305370 -1.152837
H -1.850337 3.893930 -1.187622
H -3.245258 1.808083 -1.150456
C -4.312589 -1.870703 -0.475337
C -5.100522 -3.024226 -0.387421
C -4.512544 -4.248896 -0.160279
C -3.123486 -4.347174 -0.012659
C -2.336819 -3.192490 -0.095796
C -2.923793 -1.969095 -0.326539
H -6.171526 -2.948895 -0.502999
H -5.119194 -5.139920 -0.096875
H -1.266903 -3.273562 0.008826
H -2.319369 -1.078846 -0.398388
C -2.527194 -5.606443 0.186787
C -2.008735 -6.690912 0.329868
C -1.453935 -7.981185 0.401039
C -2.235311 -9.082551 0.097277
C -1.692790 -10.370956 0.086004
C -0.363258 -10.580637 0.357574
C 0.467039 -9.492985 0.682078
C 1.846163 -9.636001 0.956350
C 2.590679 -8.541001 1.285462
N 2.044400 -7.304335 1.390670
C 0.766700 -7.126015 1.118665
C -0.079227 -8.177487 0.733079
H -3.277179 -8.940710 -0.146432
H -2.332265 -11.206335 -0.155288
H 0.057185 -11.573525 0.324977
H 2.298124 -10.613347 0.899957
H 3.659310 -8.613036 1.479824
H 0.371580 -6.116794 1.212490
C -2.858243 1.484410 5.155382
C -3.383335 2.546845 4.912009
C -4.011903 3.758731 4.567765
C -5.140153 4.196949 5.238767
C -5.798443 5.370373 4.852713
C -5.356847 6.109955 3.785747
C -4.204184 5.702373 3.080855
C -3.723249 6.393082 1.952167
N -2.644901 6.018273 1.296600
C -1.924517 4.952017 1.726961
C -2.321684 4.195988 2.792488
C -3.501978 4.531736 3.486220
H -5.522127 3.619020 6.066592
H -6.673846 5.682131 5.401112
H -5.879873 7.001587 3.478935
H -4.248986 7.270071 1.581986
H -1.013005 4.744230 1.170941
H -1.747871 3.341573 3.113833
C -2.228294 0.251864 5.414552
C -2.346460 -0.358444 6.668239
C -1.707499 -1.552784 6.918829
C -0.941061 -2.166112 5.919873
C -0.841339 -1.565164 4.659817
C -1.474237 -0.368474 4.411047
H -2.933212 0.116457 7.440385
H -1.789777 -2.019680 7.889008
H -0.261805 -2.045948 3.888341
H -1.397384 0.100144 3.442733
C -0.253390 -3.360268 6.207058
C 0.368474 -4.363354 6.476451
C 1.112625 -5.483386 6.887774
C 0.994035 -5.944270 8.187808
C 1.768742 -7.012854 8.648621
C 2.685290 -7.625909 7.830413
C 2.836413 -7.196340 6.499866
C 3.773346 -7.770805 5.611127
C 3.858992 -7.316836 4.327432
N 3.048183 -6.338240 3.854721
C 2.175626 -5.763017 4.658406
C 2.029850 -6.130104 6.005081
H 0.297606 -5.463353 8.857615
H 1.647850 -7.345888 9.668026
H 3.296355 -8.436408 8.195403
H 4.415993 -8.563258 5.959800
H 4.584523 -7.721460 3.624108
H 1.548516 -4.980119 4.237034
C 5.957143 1.387471 1.821153
C 6.452684 0.296348 1.987431
C 7.001077 -0.993251 2.122209
C 8.368935 -1.198649 2.078947
C 8.906990 -2.488913 2.150543
C 8.094186 -3.589247 2.245560
C 6.693869 -3.422064 2.302346
C 5.803097 -4.510934 2.358474
N 4.496973 -4.357370 2.417580
C 3.961064 -3.111921 2.469395
C 4.735072 -1.989838 2.390107
C 6.134124 -2.113134 2.269284
H 9.029207 -0.350561 1.979436
H 9.978700 -2.610063 2.116195
H 8.512519 -4.582461 2.278912
H 6.182730 -5.529874 2.346423
H 2.879979 -3.068996 2.581330
H 4.294274 -1.006273 2.416628
C 5.352571 2.644586 1.627748
C 4.036027 2.718188 1.156772
C 3.430818 3.941875 0.980489
C 4.124685 5.120341 1.278204
C 5.446686 5.046711 1.735053
C 6.054928 3.822605 1.905315
H 3.504226 1.807351 0.932104
H 2.418126 4.001448 0.616120
H 5.984319 5.956119 1.958256
H 7.072584 3.766371 2.262344
C 3.500618 6.376118 1.157414
C 2.959208 7.457257 1.098133
C 2.381954 8.739351 1.123166
C 3.145743 9.826717 1.511326
C 2.585466 11.103576 1.611940
C 1.254720 11.314355 1.347047
C 0.440798 10.241116 0.943094
C -0.939079 10.385481 0.673265
C -1.669165 9.305507 0.270526
N -1.108068 8.084582 0.089819
C 0.171653 7.904767 0.350875
C 1.004992 8.939533 0.803121
H 4.188790 9.682462 1.748103
H 3.212173 11.927958 1.916137
H 0.821007 12.296985 1.446107
H -1.403140 11.351542 0.792318
H -2.737924 9.377053 0.076351
H 0.578294 6.907737 0.194968
C 3.586917 -0.806666 -3.882602
C 4.102592 -1.877067 -3.654175
C 4.725651 -3.095878 -3.327245
C 5.804352 -3.566816 -4.055969
C 6.459324 -4.748869 -3.692153
C 6.066860 -5.463959 -2.589723
C 4.968593 -5.020347 -1.822547
C 4.545805 -5.680937 -0.653235
N 3.521282 -5.269200 0.063261
C 2.799106 -4.192874 -0.338822
C 3.142780 -3.465385 -1.441801
C 4.267217 -3.841368 -2.204328
H 6.147946 -3.009250 -4.914044
H 7.293619 -5.087646 -4.286962
H 6.588252 -6.362644 -2.301176
H 5.073786 -6.563681 -0.301164
H 1.934217 -3.951560 0.276157
H 2.572024 -2.601064 -1.740801
C 2.985203 0.442525 -4.126032
C 1.977250 0.911320 -3.274645
C 1.391241 2.135572 -3.503190
C 1.795983 2.918547 -4.590545
C 2.804684 2.450474 -5.441517
C 3.393784 1.227029 -5.210952
H 1.662211 0.302768 -2.441887
H 0.607560 2.494963 -2.855983
H 3.116062 3.054376 -6.280876
H 4.170449 0.865497 -5.868189
C 1.176403 4.155229 -4.851891
C 0.622355 5.204628 -5.090243
C -0.048031 6.382394 -5.466111
C 0.132504 6.899483 -6.737273
C -0.576906 8.025557 -7.165451
C -1.488646 8.641319 -6.343800
C -1.697603 8.157593 -5.039971
C -2.631413 8.733599 -4.148929
C -2.769862 8.227887 -2.889226
N -2.012772 7.195997 -2.440691
C -1.148258 6.616112 -3.249779
C -0.955538 7.032449 -4.576168
H 0.823513 6.416838 -7.411267
H -0.410256 8.401076 -8.163588
H -2.051209 9.495819 -6.685816
H -3.229382 9.569021 -4.476340
H -3.495630 8.633049 -2.186531
H -0.565004 5.789854 -2.849167
