372
cid:69, pot: -257.6471834453928
Pd -3.538117 3.590679 4.940237
Pd 4.068820 -3.188155 -4.491640
C 3.881573 4.043673 -1.823836
C 4.571255 3.449173 -2.620522
C 5.386801 2.710356 -3.497737
C 6.587137 3.221213 -3.960897
C 7.424218 2.460901 -4.785373
C 7.091452 1.178648 -5.140516
C 5.874246 0.622178 -4.693168
C 5.496426 -0.703257 -4.981535
N 4.361397 -1.223974 -4.565690
C 3.481559 -0.464761 -3.864796
C 3.764171 0.822509 -3.508421
C 4.993752 1.398460 -3.886995
H 6.883230 4.219421 -3.675879
H 8.350123 2.894192 -5.131048
H 7.749839 0.589290 -5.758485
H 6.153377 -1.346328 -5.561877
H 2.542609 -0.951234 -3.607548
H 3.064747 1.409582 -2.935414
C 3.074223 4.715697 -0.886564
C 3.405949 6.007590 -0.462173
C 2.614754 6.658702 0.458357
C 1.475717 6.031170 0.977689
C 1.147439 4.737404 0.556385
C 1.935851 4.088020 -0.366238
H 4.283245 6.492380 -0.863844
H 2.867437 7.657093 0.782897
H 0.264444 4.261367 0.951300
H 1.681157 3.094025 -0.698089
C 0.654489 6.715512 1.893324
C -0.069235 7.311657 2.658857
C -0.920758 8.082172 3.470617
C -0.746712 9.453503 3.541541
C -1.622858 10.254699 4.279739
C -2.694065 9.707123 4.941571
C -2.904781 8.317121 4.906978
C -3.995215 7.690485 5.551964
C -4.129303 6.333814 5.496264
N -3.226110 5.546746 4.860875
C -2.208885 6.095492 4.226497
C -1.999649 7.482804 4.188494
H 0.072161 9.910897 3.007471
H -1.456071 11.320580 4.312563
H -3.381438 10.331047 5.490940
H -4.714500 8.294309 6.081740
H -4.969631 5.822274 5.962213
H -1.511149 5.426553 3.727468
C 5.353897 -0.526202 2.635101
C 6.032884 -1.069062 1.793741
C 6.803632 -1.652908 0.770320
C 8.184999 -1.689813 0.845603
C 8.950443 -2.214641 -0.202281
C 8.355630 -2.689486 -1.342873
C 6.948806 -2.678419 -1.455173
C 6.278451 -3.112181 -2.614824
N 4.966157 -3.108397 -2.719600
C 4.201979 -2.715142 -1.669736
C 4.753421 -2.247493 -0.511401
C 6.155616 -2.182965 -0.381310
H 8.678456 -1.299342 1.722658
H 10.025213 -2.229048 -0.107073
H 8.950650 -3.073105 -2.156219
H 6.843824 -3.462262 -3.475260
H 3.126887 -2.800683 -1.811735
H 4.133795 -1.923191 0.309192
C 4.538650 0.101129 3.596901
C 4.982873 0.256452 4.914762
C 4.168642 0.850908 5.853397
C 2.894566 1.308362 5.493963
C 2.460120 1.171538 4.170591
C 3.270837 0.571646 3.233812
H 5.963138 -0.100516 5.193558
H 4.506397 0.962327 6.872957
H 1.484436 1.536488 3.893260
H 2.939045 0.460798 2.213691
C 2.055100 1.867787 6.475572
C 1.324770 2.307670 7.334944
C 0.515003 2.739811 8.400307
C 1.027613 2.758057 9.686201
C 0.229901 3.117676 10.776456
C -1.092645 3.445661 10.607001
C -1.655847 3.447343 9.318429
C -3.013544 3.756549 9.076282
C -3.493543 3.754398 7.799141
N -2.699534 3.489530 6.732505
C -1.432496 3.176261 6.918689
C -0.846672 3.115658 8.192620
H 2.058062 2.481113 9.848360
H 0.664506 3.122023 11.764354
H -1.710729 3.702294 11.452923
H -3.659592 3.988628 9.907784
H -4.538566 3.965745 7.579796
H -0.833968 2.967871 6.034281
C -3.547589 -3.574214 2.077603
C -4.244180 -2.969113 2.860120
C -5.062613 -2.216450 3.723658
C -6.300555 -2.685065 4.127442
C -7.137709 -1.906757 4.935337
C -6.764833 -0.648893 5.334251
C -5.506080 -0.137800 4.951900
C -5.080572 1.160196 5.292967
N -3.904541 1.636853 4.942585
C -3.030340 0.854761 4.260629
C -3.356623 -0.407542 3.854941
C -4.627949 -0.933458 4.162135
H -6.627735 -3.662265 3.806278
H -8.095053 -2.306343 5.232509
H -7.422251 -0.044722 5.938905
H -5.733153 1.818340 5.861755
H -2.056742 1.298086 4.063727
H -2.657626 -1.012233 3.299758
C -2.717451 -4.254792 1.166002
C -1.786970 -3.538102 0.403755
C -0.959662 -4.196455 -0.477681
C -1.037784 -5.587379 -0.612211
C -1.978959 -6.302136 0.139464
C -2.811622 -5.642927 1.016785
H -1.728024 -2.466945 0.513390
H -0.243871 -3.646944 -1.067215
H -2.043911 -7.374423 0.030759
H -3.533638 -6.195210 1.599792
C -0.160335 -6.280812 -1.466821
C 0.617827 -6.890119 -2.165832
C 1.527137 -7.674026 -2.898201
C 1.399844 -9.052508 -2.895626
C 2.325726 -9.864336 -3.557364
C 3.401214 -9.319260 -4.214522
C 3.568518 -7.923438 -4.249617
C 4.661875 -7.298938 -4.891646
C 4.756939 -5.937926 -4.901598
N 3.813750 -5.146680 -4.333761
C 2.789552 -5.691622 -3.707348
C 2.614355 -7.080597 -3.608342
H 0.576196 -9.506255 -2.365932
H 2.193295 -10.935263 -3.535151
H 4.125168 -9.949721 -4.706223
H 5.414796 -7.907816 -5.366239
H 5.597201 -5.425956 -5.367230
H 2.059258 -5.018296 -3.263576
C -4.713708 1.175500 -2.286567
C -5.393796 1.734170 -1.456359
C -6.169611 2.331852 -0.445662
C -7.544590 2.437606 -0.566471
C -8.319581 2.978175 0.465853
C -7.742905 3.398210 1.637161
C -6.343680 3.311873 1.798461
C -5.695048 3.680260 2.992671
N -4.390051 3.601160 3.144869
C -3.608870 3.191418 2.113545
C -4.140654 2.784624 0.923734
C -5.538287 2.801631 0.740766
H -8.025256 2.091749 -1.468990
H -9.388318 3.049104 0.334059
H -8.346738 3.794222 2.437931
H -6.271995 4.039789 3.841121
H -2.536973 3.208473 2.301012
H -3.510717 2.443586 0.118097
C -3.910100 0.516063 -3.235861
C -2.542541 0.339170 -2.992809
C -1.753812 -0.312053 -3.913789
C -2.312420 -0.798396 -5.101436
C -3.680233 -0.622584 -5.344366
C -4.470447 0.025875 -4.421237
H -2.113300 0.721350 -2.080229
H -0.698478 -0.440726 -3.734870
H -4.110796 -0.997050 -6.261114
H -5.524816 0.162815 -4.609394
C -1.505572 -1.433324 -6.064398
C -0.804129 -1.953372 -6.902641
C -0.022740 -2.479242 -7.947013
C -0.557013 -2.582267 -9.219703
C 0.218150 -3.030484 -10.293370
C 1.538923 -3.364048 -10.121100
C 2.122020 -3.285313 -8.843838
C 3.478603 -3.597996 -8.599604
C 3.976110 -3.520664 -7.331485
N 3.199828 -3.178809 -6.273312
C 1.935766 -2.856196 -6.463952
C 1.335020 -2.864798 -7.732363
H -1.585357 -2.299944 -9.385914
H -0.232216 -3.098202 -11.271981
H 2.140239 -3.687177 -10.956321
H 4.109891 -3.893322 -9.422410
H 5.021255 -3.732143 -7.112976
H 1.351373 -2.584783 -5.587434
Pd -3.332246 3.929159 4.666245
Pd 4.181343 -3.418824 -4.407389
C 4.187889 3.906631 -2.001275
C 4.868950 3.262620 -2.766220
C 5.672296 2.467612 -3.604749
C 6.894371 2.923743 -4.068232
C 7.717893 2.108470 -4.852983
C 7.349391 0.825299 -5.167099
C 6.109271 0.323558 -4.717978
C 5.693417 -0.998930 -4.964561
N 4.536998 -1.468642 -4.546915
C 3.672363 -0.657606 -3.886341
C 3.990907 0.632198 -3.571821
C 5.243112 1.155478 -3.952724
H 7.218181 3.921798 -3.814634
H 8.661610 2.499926 -5.200364
H 7.996947 0.193823 -5.754121
H 6.337396 -1.682680 -5.512062
H 2.715155 -1.104986 -3.625648
H 3.302897 1.261032 -3.030281
C 3.389778 4.636830 -1.100285
C 3.756617 5.932172 -0.717270
C 2.974279 6.640336 0.167930
C 1.809041 6.067776 0.692648
C 1.445600 4.770563 0.312912
C 2.225215 4.064125 -0.574568
H 4.654194 6.374541 -1.123161
H 3.254089 7.641400 0.460412
H 0.542742 4.336843 0.711627
H 1.943629 3.067252 -0.874545
C 0.997773 6.809919 1.571380
C 0.283120 7.455551 2.304711
C -0.554300 8.280975 3.076123
C -0.337802 9.647851 3.100731
C -1.197851 10.502044 3.797232
C -2.294641 10.012358 4.462538
C -2.548901 8.629283 4.474304
C -3.667196 8.060596 5.125207
C -3.843491 6.707646 5.115819
N -2.957328 5.870429 4.522004
C -1.914798 6.363966 3.883368
C -1.661192 7.741807 3.799099
H 0.502255 10.059938 2.562687
H -0.997795 11.562694 3.794584
H -2.969245 10.676825 4.979308
H -4.374002 8.705259 5.622690
H -4.705766 6.239694 5.587457
H -1.231999 5.656023 3.418554
C 5.454688 -0.543627 2.638153
C 6.127338 -1.137362 1.826524
C 6.892816 -1.781428 0.835822
C 8.271194 -1.858734 0.932364
C 9.033551 -2.444554 -0.084953
C 8.439210 -2.941293 -1.216508
C 7.035163 -2.890374 -1.349491
C 6.366941 -3.344415 -2.502592
N 5.056962 -3.303446 -2.626525
C 4.291582 -2.848961 -1.602463
C 4.842120 -2.357423 -0.453565
C 6.243740 -2.332072 -0.305578
H 8.764972 -1.452544 1.802074
H 10.105887 -2.489049 0.026306
H 9.032625 -3.372317 -2.006935
H 6.932324 -3.742691 -3.341795
H 3.216365 -2.905956 -1.756891
H 4.222141 -1.984605 0.345924
C 4.646952 0.143044 3.565094
C 5.078228 0.331710 4.882887
C 4.270733 0.984708 5.787907
C 3.016811 1.468463 5.393983
C 2.595989 1.297751 4.070129
C 3.399716 0.639548 3.167188
H 6.042818 -0.045401 5.188453
H 4.598214 1.122114 6.807654
H 1.636115 1.682810 3.765892
H 3.078190 0.502508 2.146902
C 2.182416 2.088806 6.342843
C 1.454982 2.581919 7.175398
C 0.645133 3.077180 8.212837
C 1.140787 3.125662 9.504558
C 0.340400 3.549005 10.569713
C -0.968667 3.911808 10.369523
C -1.514268 3.884728 9.073641
C -2.858146 4.227275 8.800943
C -3.320824 4.194187 7.517927
N -2.521345 3.866414 6.472980
C -1.267505 3.520644 6.688566
C -0.701073 3.487661 7.972156
H 2.159716 2.822672 9.691415
H 0.761633 3.575313 11.562982
H -1.589612 4.217902 11.196724
H -3.507529 4.509156 9.614204
H -4.355548 4.430008 7.276025
H -0.664153 3.262008 5.820911
C -3.530748 -3.330275 2.060177
C -4.218172 -2.675956 2.810559
C -5.023821 -1.867530 3.634781
C -6.281262 -2.282430 4.037019
C -7.104087 -1.449776 4.804521
C -6.696894 -0.190617 5.163862
C -5.417481 0.266780 4.781824
C -4.955625 1.562309 5.082753
N -3.760474 1.989089 4.732744
C -2.902459 1.156041 4.091753
C -3.263249 -0.109203 3.726466
C -4.554573 -0.583776 4.033728
H -6.634972 -3.259850 3.746063
H -8.077483 -1.808346 5.101752
H -7.342771 0.455098 5.736997
H -5.594527 2.260538 5.618278
H -1.912789 1.561401 3.893378
H -2.576415 -0.754995 3.203382
C -2.710525 -4.068783 1.185481
C -1.747596 -3.409408 0.411843
C -0.929886 -4.124551 -0.433548
C -1.050274 -5.516297 -0.519662
C -2.023696 -6.173775 0.243222
C -2.846609 -5.457789 1.084390
H -1.656188 -2.337346 0.484225
H -0.189162 -3.619225 -1.031738
H -2.121157 -7.246751 0.171697
H -3.593608 -5.965901 1.676058
C -0.183928 -6.267072 -1.336246
C 0.583805 -6.925150 -2.001843
C 1.477495 -7.762893 -2.692582
C 1.306487 -9.135733 -2.642871
C 2.214936 -9.999388 -3.261922
C 3.315836 -9.512116 -3.922274
C 3.527801 -8.124389 -4.004593
C 4.648971 -7.557857 -4.652458
C 4.787214 -6.201680 -4.709377
N 3.862115 -5.361445 -4.183697
C 2.812910 -5.851294 -3.553310
C 2.592410 -7.229643 -3.407521
H 0.461849 -9.544200 -2.109427
H 2.048323 -11.064158 -3.203547
H 4.025996 -10.182184 -4.380710
H 5.388457 -8.206616 -5.094126
H 5.649528 -5.733316 -5.180671
H 2.098439 -5.139941 -3.144360
C -4.487051 1.293474 -2.486410
C -5.160115 1.902609 -1.686537
C -5.930026 2.560193 -0.709090
C -7.299242 2.704426 -0.853530
C -8.070448 3.305731 0.147605
C -7.496509 3.749418 1.311421
C -6.102933 3.625261 1.496008
C -5.459066 4.015966 2.685631
N -4.159351 3.901660 2.859460
C -3.377811 3.430893 1.854839
C -3.906228 2.998348 0.672640
C -5.300053 3.052404 0.468927
H -7.778497 2.341490 -1.750091
H -9.134539 3.405198 -0.002176
H -8.098122 4.192652 2.088820
H -6.035533 4.423601 3.512357
H -2.308490 3.421189 2.057128
H -3.276745 2.609047 -0.111203
C -3.692166 0.575546 -3.399938
C -2.334278 0.364889 -3.130936
C -1.554335 -0.343364 -4.016656
C -2.112215 -0.854414 -5.194283
C -3.470359 -0.644820 -5.463056
C -4.251893 0.060778 -4.575164
H -1.905346 0.766037 -2.226410
H -0.506155 -0.498379 -3.817951
H -3.900244 -1.038430 -6.372148
H -5.298785 0.223725 -4.783349
C -1.313053 -1.548484 -6.122275
C -0.617342 -2.119980 -6.931224
C 0.160910 -2.707232 -7.944776
C -0.359320 -2.839222 -9.220615
C 0.415532 -3.349773 -10.266361
C 1.722686 -3.718022 -10.063174
C 2.290823 -3.611624 -8.781173
C 3.633418 -3.957547 -8.506376
C 4.116144 -3.850221 -7.234676
N 3.336958 -3.446440 -6.200753
C 2.086427 -3.091556 -6.420987
C 1.502723 -3.127003 -7.696847
H -1.375818 -2.531120 -9.411698
H -0.023588 -3.438567 -11.248376
H 2.324536 -4.089605 -10.877621
H 4.265988 -4.301845 -9.308878
H 5.150976 -4.086202 -6.993612
H 1.499268 -2.770684 -5.563278
