336
cid:69, pot: -280.9217880048659
C 0.136267 1.006447 4.236911
C -1.187437 1.015269 4.843341
C 0.658650 2.170528 3.686056
C 1.940841 2.184206 3.137017
H 0.092129 3.089121 3.683597
C 2.693702 1.016071 3.135309
C 2.182709 -0.159967 3.684605
H 3.691241 0.996319 2.723757
C 0.903632 -0.158405 4.228049
C 2.989199 -1.371810 3.717971
H 0.482923 -1.050597 4.666113
C 2.500835 3.415218 2.597325
H 2.462839 -2.288465 4.026552
H -1.784837 1.924770 4.675051
H 3.449711 3.309131 2.048932
C -3.716475 -1.495231 1.907507
C -3.512024 -1.674769 3.337876
C -3.455859 -2.540983 1.030004
C -3.684761 -2.395158 -0.338221
H -3.085850 -3.489637 1.387711
C -4.168458 -1.185776 -0.822821
C -4.434692 -0.127186 0.045763
H -4.361703 -1.043989 -1.875085
C -4.201941 -0.287231 1.406533
C -4.979455 1.124652 -0.460482
H -4.404032 0.510888 2.104410
C -3.449250 -3.506186 -1.249348
H -5.015693 1.956871 0.259575
H -2.985543 -2.595539 3.633583
H -3.505013 -3.265388 -2.322302
C 3.157889 -2.656727 -0.713589
C 4.248773 -2.396566 0.214975
C 3.107980 -1.992077 -1.933124
C 2.090214 -2.260674 -2.848309
H 3.860163 -1.267092 -2.203983
C 1.114080 -3.196031 -2.526454
C 1.150982 -3.871026 -1.306240
H 0.317516 -3.430443 -3.215837
C 2.171263 -3.593073 -0.404334
C 0.149664 -4.879524 -0.989011
H 2.230581 -4.103307 0.544918
C 2.064260 -1.592202 -4.141641
H 0.157207 -5.252231 0.046958
H 4.894528 -1.540164 -0.034053
H 1.151704 -1.741387 -4.739421
C 0.054364 4.092158 -1.258980
C 0.254885 4.981999 -0.124026
C -1.232680 3.774729 -1.676207
C -1.438624 2.954984 -2.785870
H -2.097506 4.165096 -1.162046
C -0.341232 2.446013 -3.469838
C 0.956577 2.755754 -3.062694
H -0.467827 1.814238 -4.335665
C 1.146350 3.573861 -1.955370
C 2.103706 2.253586 -3.805795
H 2.137796 3.836819 -1.619783
C -2.788247 2.657763 -3.244540
H 3.086129 2.412661 -3.334602
H -0.646780 5.221198 0.461011
H -2.869396 1.885265 -4.024873
C -2.903820 0.106159 6.137098
C -3.737668 -1.064730 5.578680
N -1.606472 0.052277 5.540476
N -3.939022 -0.841504 4.181696
C -5.101818 -1.108586 6.272446
H -3.185781 -2.002623 5.771637
C -4.943767 -1.245577 7.781796
H -5.673873 -1.947602 5.870545
H -5.639982 -0.190263 6.031280
C -4.116976 -0.089933 8.335165
H -4.445506 -2.190428 8.011023
H -5.928382 -1.261924 8.253362
C -2.754903 -0.039222 7.654017
H -3.983648 -0.206364 9.412589
H -4.645789 0.850117 8.161519
H -2.196543 -0.954294 7.858526
H -2.169953 0.801975 8.032021
H -3.429967 1.048027 5.897709
C 4.981790 -2.567394 3.503076
C 5.549933 -2.851009 2.097696
N 4.218335 -1.361215 3.438858
N 4.454810 -3.126220 1.221974
C 6.463911 -4.078476 2.144798
H 6.124894 -1.964490 1.774068
C 7.598179 -3.877991 3.142228
H 6.862517 -4.258463 1.144043
H 5.862466 -4.944562 2.426379
C 7.038043 -3.594583 4.531971
H 8.218934 -3.037580 2.823021
H 8.227145 -4.770243 3.166139
C 6.129434 -2.371954 4.497560
H 7.853741 -3.425157 5.237698
H 6.469236 -4.460905 4.877319
H 6.696579 -1.488688 4.198733
H 5.708441 -2.180907 5.487018
H 4.363492 -3.432214 3.805062
C 2.535992 5.722390 2.247754
C 1.536785 6.356239 1.258894
N 1.945584 4.532723 2.775095
N 1.385006 5.468777 0.149282
C 2.085441 7.692067 0.750305
H 0.582099 6.518549 1.791497
C 2.361427 8.645773 1.906168
H 1.361702 8.129026 0.059005
H 3.004168 7.497250 0.194345
C 3.347328 8.019275 2.886429
H 1.426125 8.868666 2.424952
H 2.762757 9.584423 1.518862
C 2.809304 6.690353 3.402135
H 3.521514 8.694793 3.726339
H 4.303131 7.854361 2.383798
H 1.877012 6.846920 3.947621
H 3.524367 6.228474 4.086436
H 3.473390 5.511376 1.701714
C -3.019051 -5.743530 -1.754825
C -1.609439 -6.320673 -1.513907
N -3.225183 -4.673693 -0.830380
N -0.653204 -5.315776 -1.857279
C -1.386998 -7.540518 -2.412070
H -1.535488 -6.615483 -0.451429
C -2.444954 -8.607243 -2.157964
H -0.388477 -7.939885 -2.221646
H -1.423823 -7.212839 -3.452469
C -3.839675 -8.037221 -2.393051
H -2.366115 -8.959305 -1.126841
H -2.271923 -9.459489 -2.818269
C -4.073435 -6.824411 -1.500775
H -4.595490 -8.796915 -2.184053
H -3.939430 -7.742903 -3.440438
H -4.022800 -7.113933 -0.449759
H -5.062915 -6.400221 -1.684332
H -3.075560 -5.400086 -2.803690
C -5.954380 2.473584 -2.096630
C -5.101202 2.966110 -3.283193
N -5.407968 1.234468 -1.640802
N -3.793590 3.270354 -2.794258
C -5.715728 4.238942 -3.872110
H -5.081336 2.167944 -4.047300
C -7.152184 3.996853 -4.318921
H -5.103616 4.567273 -4.714895
H -5.683970 5.020149 -3.110646
C -7.996387 3.507118 -3.147207
H -7.164590 3.247076 -5.113328
H -7.570959 4.920939 -4.722541
C -7.395903 2.237797 -2.555762
H -9.018088 3.309599 -3.477733
H -8.035614 4.283015 -2.379133
H -7.393533 1.439294 -3.299762
H -7.985655 1.898217 -1.701616
H -5.930679 3.249772 -1.310343
C 2.986890 -0.286129 -5.841447
C 3.127683 1.236299 -5.639734
N 3.039857 -0.911144 -4.557659
N 1.976628 1.698809 -4.930419
C 3.183730 1.937634 -6.999623
H 4.061458 1.424037 -5.079208
C 4.337722 1.407362 -7.841446
H 3.291885 3.012113 -6.836743
H 2.234857 1.770341 -7.512145
C 4.201437 -0.098433 -8.039518
H 5.283606 1.622926 -7.338944
H 4.348312 1.913455 -8.808870
C 4.148699 -0.807259 -6.691708
H 5.044256 -0.478232 -8.620463
H 3.286195 -0.309477 -8.597451
H 5.077428 -0.643099 -6.142471
H 4.027362 -1.883683 -6.830744
H 2.027347 -0.477697 -6.355118
C -0.470192 -3.857373 1.447336
C -1.440377 -4.504711 0.575713
C -0.901394 -3.105078 2.533392
C 0.018818 -2.512234 3.397888
H -1.952791 -2.975186 2.739258
C 1.378526 -2.671371 3.158989
C 1.826340 -3.423616 2.072890
H 2.114941 -2.230460 3.813301
C 0.897796 -4.008328 1.220087
C 3.251201 -3.622364 1.848338
H 1.212917 -4.601369 0.375061
C -0.435959 -1.758649 4.557924
H 3.523404 -4.095750 0.892139
H -2.491094 -4.214018 0.729963
H 0.341994 -1.198784 5.099844
C -1.092165 -2.114994 -3.359519
C -0.954225 -3.546572 -3.132684
C -0.077661 -1.409630 -3.995717
C -0.213834 -0.045652 -4.254292
H 0.827905 -1.902113 -4.315263
C -1.373875 0.609965 -3.859664
C -2.400666 -0.084768 -3.220148
H -1.511755 1.663074 -4.051131
C -2.250974 -1.443459 -2.969317
C -3.631307 0.596841 -2.844299
H -3.030025 -2.009657 -2.482193
C 0.833673 0.681301 -4.957335
H -4.323278 0.020612 -2.210542
H 0.044256 -3.967419 -3.328375
H 0.720542 1.776169 -4.985191
C 4.702951 0.544776 0.489941
C 5.177780 -0.286580 1.586878
C 4.301329 1.853313 0.731146
C 3.881513 2.672929 -0.316493
H 4.318919 2.266968 1.727768
C 3.857496 2.166106 -1.610251
C 4.257576 0.854821 -1.867798
H 3.543904 2.777171 -2.442745
C 4.673585 0.049886 -0.813860
C 4.269492 0.339771 -3.229713
H 4.995086 -0.966622 -0.981971
C 3.500392 4.055680 -0.065563
H 4.448195 -0.741868 -3.330848
H 5.025425 0.122884 2.597684
H 3.037256 4.585807 -0.912224
C -2.247125 2.059475 2.698997
C -2.856528 1.092665 3.601231
C -2.862265 2.369824 1.492071
C -2.309536 3.322908 0.636593
H -3.784652 1.893096 1.197785
C -1.126379 3.956814 0.996433
C -0.497330 3.655468 2.204594
H -0.677361 4.702955 0.359021
C -1.059793 2.703883 3.046913
C 0.720428 4.350690 2.597027
H -0.600531 2.453793 3.991003
C -2.978378 3.674998 -0.607957
H 1.236056 3.949635 3.483448
H -3.701547 0.520078 3.188254
H -2.404457 4.315772 -1.295206
C -2.080664 -5.993920 -1.103136
C -1.755884 -5.665564 -2.574521
N -1.096895 -5.364601 -0.279673
N -1.926359 -4.259636 -2.765024
C -2.723867 -6.409120 -3.498768
H -0.718132 -5.986880 -2.777610
C -2.655720 -7.913442 -3.266086
H -2.473559 -6.171084 -4.534819
H -3.733639 -6.042844 -3.305631
C -2.973829 -8.239573 -1.810858
H -1.653041 -8.273760 -3.507796
H -3.362707 -8.418900 -3.927005
C -2.013411 -7.507435 -0.881693
H -2.897635 -9.315681 -1.642426
H -3.999096 -7.936044 -1.586868
H -0.988753 -7.836291 -1.063051
H -2.254239 -7.721079 0.161873
H -3.099331 -5.625129 -0.885205
C 5.500720 -3.528166 2.462185
C 6.224670 -2.166713 2.488724
N 4.112328 -3.298236 2.709854
N 5.752963 -1.390074 1.385870
C 7.733288 -2.377408 2.333642
H 6.008958 -1.681526 3.457850
C 8.274565 -3.284685 3.431608
H 8.228821 -1.404585 2.363046
H 7.919932 -2.818771 1.353174
C 7.557719 -4.630418 3.408514
H 8.123143 -2.809638 4.403637
H 9.347865 -3.429038 3.291701
C 6.055133 -4.432824 3.565967
H 7.929816 -5.267390 4.213489
H 7.761102 -5.133527 2.460428
H 5.834098 -3.972940 4.530735
H 5.537223 -5.393518 3.526269
H 5.673038 -3.990095 1.473110
C -2.045053 -1.037894 6.086972
C -3.096746 0.001598 5.649663
N -1.639851 -1.773774 4.930959
N -2.457959 0.945701 4.787951
C -3.637816 0.741095 6.876284
H -3.917823 -0.533850 5.139211
C -4.243473 -0.233035 7.879191
H -4.385903 1.465856 6.548117
H -2.815793 1.292976 7.335460
C -3.205412 -1.263438 8.310616
H -5.093704 -0.744295 7.421657
H -4.610070 0.316730 8.748416
C -2.662696 -2.008410 7.097356
H -3.650950 -1.975168 9.008441
H -2.384462 -0.757885 8.824290
H -3.465459 -2.556590 6.601083
H -1.901885 -2.730682 7.401427
H -1.199398 -0.497806 6.550178
C 2.790373 0.832783 -6.220186
C 4.151623 0.555686 -5.550621
N 1.791537 0.087132 -5.521674
N 4.113771 1.094195 -4.227482
C 5.267520 1.251607 -6.334514
H 4.317181 -0.536968 -5.547308
C 5.288430 0.787247 -7.785586
H 6.223104 1.037408 -5.851078
H 5.101632 2.329216 -6.285573
C 3.942028 1.058028 -8.448381
H 5.501601 -0.283614 -7.821672
H 6.083186 1.306491 -8.325065
C 2.823985 0.366204 -7.678167
H 3.952739 0.699471 -9.479578
H 3.757712 2.134669 -8.468589
H 2.970853 -0.715151 -7.689977
H 1.856041 0.578122 -8.137438
H 2.600381 1.920549 -6.176123
C -5.122890 2.391631 -2.872903
C -4.783832 3.674349 -2.086705
N -3.895703 1.762011 -3.246025
N -4.151651 3.291913 -0.863751
C -6.069811 4.438158 -1.758981
H -4.123637 4.298863 -2.715495
C -6.839155 4.784182 -3.027799
H -5.809297 5.345954 -1.210509
H -6.682145 3.815422 -1.104354
C -7.172698 3.516934 -3.807695
H -6.233229 5.445231 -3.651737
H -7.756240 5.316171 -2.766609
C -5.899112 2.750697 -4.142942
H -7.700383 3.771481 -4.729092
H -7.830460 2.884164 -3.207422
H -5.252461 3.354647 -4.781989
H -6.137177 1.830664 -4.681178
H -5.739401 1.743395 -2.224148
C 3.347140 5.979231 1.247021
C 2.326192 6.032997 2.401548
N 3.716293 4.613939 1.043672
N 1.137430 5.364557 1.974934
C 1.983692 7.489917 2.724942
H 2.779454 5.546740 3.284399
C 3.235630 8.278124 3.089601
H 1.267306 7.507951 3.548972
H 1.500914 7.931571 1.851521
C 4.247363 8.223560 1.950039
H 3.682451 7.854038 3.991930
H 2.966707 9.314611 3.303231
C 4.598582 6.777552 1.622394
H 5.153127 8.767052 2.226221
H 3.823358 8.704251 1.065362
H 5.066464 6.298305 2.484177
H 5.305165 6.735137 0.790770
H 2.874638 6.417681 0.349405
