308
cid:69, pot: -187.8130173423572
Pd 0.955476 4.267867 -1.227076
Pd -0.814844 -4.585327 1.043289
C 4.898363 -3.066459 2.603854
C 4.509312 -4.201568 2.758479
C 4.187386 -5.568652 2.861086
C 5.138147 -6.456264 3.332330
C 4.900164 -7.834684 3.336417
C 3.728257 -8.349821 2.841055
C 2.727743 -7.484490 2.362316
C 1.511828 -7.950223 1.812989
C 0.569867 -7.057018 1.393644
N 0.738800 -5.718543 1.528233
C 1.874118 -5.244257 2.002808
C 2.931736 -6.074365 2.406437
H 6.084851 -6.079108 3.687682
H 5.664151 -8.496868 3.714440
H 3.562688 -9.415324 2.811186
H 1.342901 -9.011668 1.726952
H -0.360898 -7.380820 0.932445
H 1.967479 -4.164414 2.089269
C 5.378198 -1.767247 2.331502
C 6.695836 -1.426552 2.654062
C 7.183277 -0.178770 2.311337
C 6.382409 0.735043 1.647404
C 5.062415 0.411396 1.323459
C 4.565982 -0.841227 1.680097
H 7.326632 -2.140895 3.160383
H 8.202345 0.081109 2.554729
H 6.799608 1.685001 1.352830
H 3.539821 -1.102785 1.477829
C 4.204313 1.358676 0.605685
C 4.307166 2.741872 0.785703
C 3.434617 3.583495 0.126580
N 2.472082 3.119798 -0.675796
C 2.379640 1.802219 -0.895098
C 3.226898 0.902359 -0.289186
H 5.042876 3.156455 1.455399
H 3.489295 4.662258 0.240173
H 1.593650 1.489278 -1.580887
H 3.149182 -0.149194 -0.513285
C -1.307725 -0.995790 5.946481
C -1.562586 -2.174920 6.037852
C -1.996075 -3.504005 6.206715
C -2.455194 -3.917531 7.444440
C -3.006338 -5.191089 7.621633
C -3.138789 -6.056084 6.564135
C -2.675298 -5.683122 5.289270
C -2.807436 -6.513288 4.153358
C -2.309845 -6.103402 2.950892
N -1.641852 -4.932059 2.811715
C -1.528701 -4.114383 3.840262
C -2.057428 -4.411730 5.106004
H -2.401567 -3.240075 8.282815
H -3.351432 -5.480343 8.602511
H -3.598177 -7.023120 6.696244
H -3.306397 -7.464327 4.248709
H -2.427326 -6.700502 2.049179
H -0.987450 -3.184264 3.682416
C -1.106736 0.395089 5.813604
C -1.279400 1.234443 6.918992
C -1.162081 2.603367 6.763437
C -0.881200 3.152209 5.523648
C -0.699675 2.326412 4.411265
C -0.804248 0.945567 4.569829
H -1.511379 0.810747 7.884017
H -1.302043 3.251077 7.615480
H -0.838676 4.224900 5.420043
H -0.628742 0.282820 3.737725
C -0.420410 2.890830 3.087460
C 0.322500 4.063908 2.919253
C 0.597430 4.522199 1.647056
N 0.188852 3.870184 0.554755
C -0.554991 2.765131 0.690435
C -0.886481 2.258620 1.926639
H 0.705702 4.599889 3.772094
H 1.166917 5.431914 1.480599
H -0.879288 2.294533 -0.236663
H -1.515779 1.386763 2.002175
C -4.755885 2.746803 -2.791835
C -4.368563 3.883275 -2.940221
C -4.049426 5.251580 -3.035637
C -5.002863 6.139762 -3.500598
C -4.767996 7.518787 -3.497268
C -3.596445 8.033612 -3.000888
C -2.593264 7.167904 -2.528583
C -1.377418 7.633192 -1.978758
C -0.432830 6.739743 -1.565673
N -0.599258 5.401623 -1.707009
C -1.734302 4.927475 -2.182487
C -2.794283 5.757520 -2.580134
H -5.949282 5.762474 -3.856471
H -5.533967 8.181317 -3.870338
H -3.433068 9.099284 -2.965348
H -1.210479 8.694500 -1.887455
H 0.497896 7.063160 -1.104301
H -1.825372 3.847847 -2.274664
C -5.233664 1.445443 -2.526417
C -6.547801 1.101343 -2.859141
C -7.033687 -0.148841 -2.523043
C -6.234542 -1.061822 -1.855675
C -4.918082 -0.734751 -1.521473
C -4.423146 0.520350 -1.871587
H -7.177398 1.814869 -3.368113
H -8.050141 -0.411422 -2.774248
H -6.650831 -2.013764 -1.566421
H -3.399308 0.784687 -1.661097
C -4.061745 -1.680988 -0.800322
C -4.158757 -3.063999 -0.984805
C -3.287618 -3.904463 -0.322312
N -2.331601 -3.439825 0.487407
C -2.245416 -2.122546 0.711053
C -3.091814 -1.223850 0.102334
H -4.888706 -3.479260 -1.660330
H -3.337877 -4.983183 -0.439329
H -1.465011 -1.808851 1.402824
H -3.019306 -0.172824 0.330219
C 1.473764 0.673720 -6.126904
C 1.724281 1.853801 -6.218695
C 2.153153 3.184335 -6.387852
C 2.615526 3.597790 -7.624423
C 3.162113 4.873240 -7.801547
C 3.286829 5.740408 -6.744936
C 2.819902 5.367555 -5.471296
C 2.944579 6.199836 -4.336163
C 2.444447 5.789735 -3.134866
N 1.780629 4.615923 -2.996206
C 1.674326 3.796284 -4.024004
C 2.206489 4.093963 -5.288287
H 2.567911 2.918696 -8.461976
H 3.509895 5.162326 -8.781557
H 3.742729 6.709088 -6.876767
H 3.440060 7.152845 -4.431084
H 2.556506 6.388667 -2.233699
H 1.136460 2.864290 -3.866856
C 1.277563 -0.717687 -5.992565
C 1.462704 -1.558687 -7.094650
C 1.349505 -2.927700 -6.937094
C 1.060517 -3.475140 -5.698488
C 0.866663 -2.647639 -4.589476
C 0.966940 -1.266781 -4.750195
H 1.701050 -1.136072 -8.058626
H 1.499057 -3.576620 -7.786610
H 1.021400 -4.547634 -5.592866
H 0.781882 -0.602881 -3.921024
C 0.579482 -3.210364 -3.266632
C -0.160007 -4.385984 -3.101240
C -0.441802 -4.842965 -1.830096
N -0.043222 -4.187308 -0.736321
C 0.696845 -3.079390 -0.868944
C 1.034629 -2.573806 -2.103833
H -0.535110 -4.925150 -3.955775
H -1.008915 -5.754553 -1.665663
H 1.012608 -2.605337 0.059425
H 1.660445 -1.699330 -2.176915
Pd -2.278119 -3.278431 -2.839622
Pd 2.999076 2.462671 2.245501
C -0.561100 -0.951459 5.858211
C 0.145715 -0.095080 6.338432
C 0.838871 0.953706 6.973094
C 0.711131 1.122042 8.340270
C 1.284895 2.220277 8.989457
C 1.963575 3.181874 8.283185
C 2.128734 3.046451 6.892724
C 2.790526 4.013567 6.102907
C 2.943125 3.807331 4.763097
N 2.518156 2.670747 4.158233
C 1.864600 1.761158 4.854372
C 1.600604 1.902586 6.225804
H 0.145858 0.402162 8.912093
H 1.167102 2.317182 10.058019
H 2.373056 4.046678 8.781272
H 3.165805 4.910294 6.569559
H 3.414469 4.547630 4.119942
H 1.538586 0.867540 4.327603
C -1.455233 -1.881593 5.285512
C -2.297110 -2.638933 6.106439
C -3.226212 -3.488741 5.535084
C -3.335663 -3.593891 4.158753
C -2.497876 -2.848096 3.325700
C -1.552082 -2.001020 3.900651
H -2.223036 -2.550057 7.179367
H -3.880164 -4.068050 6.169162
H -4.097387 -4.231042 3.737896
H -0.866535 -1.443899 3.282585
C -2.609850 -2.932753 1.866532
C -2.971581 -4.115802 1.213981
C -3.005471 -4.152598 -0.164986
N -2.686245 -3.090937 -0.910787
C -2.375841 -1.936222 -0.308472
C -2.340467 -1.816905 1.062404
H -3.197428 -5.007335 1.775949
H -3.286206 -5.053081 -0.703530
H -2.153623 -1.100415 -0.970413
H -2.120939 -0.864445 1.517043
C 5.409606 -3.136821 2.176978
C 5.992904 -2.239204 2.740737
C 6.796924 -1.234077 3.311657
C 8.029080 -1.569231 3.843863
C 8.906831 -0.584318 4.309182
C 8.584960 0.746965 4.220165
C 7.337937 1.134610 3.696703
C 6.956087 2.487332 3.550059
C 5.719647 2.794985 3.062139
N 4.811575 1.837667 2.751289
C 5.142849 0.564317 2.841381
C 6.408961 0.139797 3.273536
H 8.323645 -2.606673 3.885535
H 9.858669 -0.883535 4.720807
H 9.279250 1.505711 4.545462
H 7.650984 3.265380 3.822460
H 5.407574 3.824639 2.901349
H 4.384106 -0.169504 2.578991
C 4.777411 -4.157505 1.434588
C 5.356297 -5.428525 1.361189
C 4.776277 -6.399526 0.565813
C 3.631646 -6.124826 -0.163226
C 3.037976 -4.861859 -0.095285
C 3.614283 -3.886579 0.716881
H 6.255839 -5.642001 1.917837
H 5.227228 -7.378320 0.504274
H 3.224170 -6.885574 -0.810197
H 3.154684 -2.916689 0.820032
C 1.836895 -4.547389 -0.874680
C 0.856150 -5.505510 -1.151250
C -0.278388 -5.140997 -1.846935
N -0.485812 -3.886754 -2.258090
C 0.455305 -2.960215 -2.037353
C 1.621803 -3.253227 -1.367900
H 0.964073 -6.519984 -0.803820
H -1.056916 -5.860578 -2.083012
H 0.239158 -1.963657 -2.419780
H 2.374810 -2.493234 -1.236706
C 1.278719 0.139531 -6.451836
C 0.576688 -0.721335 -6.931018
C -0.110226 -1.774749 -7.564746
C 0.023222 -1.946812 -8.931037
C -0.543829 -3.049241 -9.579065
C -1.221518 -4.011126 -8.872352
C -1.392493 -3.872082 -7.482967
C -2.053834 -4.839130 -6.692711
C -2.212156 -4.629555 -5.354029
N -1.793342 -3.489759 -4.750970
C -1.140546 -2.579726 -5.447402
C -0.871200 -2.724218 -6.817549
H 0.587923 -1.226483 -9.502845
H -0.421472 -3.148974 -10.646713
H -1.625824 -4.879034 -9.369242
H -2.424218 -5.738543 -7.158037
H -2.683337 -5.369633 -4.710621
H -0.819963 -1.683368 -4.922056
C 2.167629 1.074918 -5.879892
C 3.001566 1.840317 -6.701371
C 3.926138 2.695702 -6.130712
C 4.038687 2.798459 -4.754402
C 3.208928 2.044626 -3.920754
C 2.267633 1.192066 -4.494992
H 2.925209 1.753361 -7.774310
H 4.574035 3.281218 -6.765251
H 4.797001 3.440080 -4.334348
H 1.588204 0.628271 -3.876136
C 3.324070 2.126824 -2.461712
C 3.678670 3.311085 -1.807604
C 3.715408 3.345390 -0.428569
N 3.405183 2.279996 0.315885
C 3.102146 1.124203 -0.288296
C 3.064740 1.007329 -1.659249
H 3.896867 4.205400 -2.368185
H 3.990734 4.246863 0.111171
H 2.887416 0.285537 0.372390
H 2.851509 0.054187 -2.115174
C -4.703378 2.316670 -2.750098
C -5.284089 1.419597 -3.317456
C -6.085430 0.414590 -3.892412
C -7.319204 0.748394 -4.421886
C -8.194128 -0.236989 -4.891255
C -7.867876 -1.567630 -4.809008
C -6.619279 -1.953796 -4.288482
C -6.233104 -3.305846 -4.148283
C -4.995576 -3.612109 -3.662513
N -4.090104 -2.653583 -3.347734
C -4.425186 -1.380766 -3.431796
C -5.693010 -0.958161 -3.861215
H -7.617066 1.785177 -4.458259
H -9.147303 0.061163 -5.300616
H -8.559987 -2.327013 -5.137438
H -6.925874 -4.084947 -4.423972
H -4.680425 -4.641576 -3.506587
H -3.668874 -0.645825 -3.166453
C -4.073549 3.335717 -2.003573
C -4.658906 4.603191 -1.919446
C -4.080498 5.572126 -1.120320
C -2.931153 5.298913 -0.397979
C -2.331343 4.039494 -0.476675
C -2.905819 3.066473 -1.292662
H -5.562052 4.815371 -2.470790
H -4.536354 6.548028 -1.050577
H -2.524904 6.057419 0.252055
H -2.441632 2.099721 -1.404187
C -1.125617 3.726153 0.296104
C -0.148366 4.687174 0.575068
C 0.990057 4.323819 1.264957
N 1.204542 3.068222 1.668138
C 0.267242 2.138514 1.444717
C -0.902680 2.429970 0.780561
H -0.262342 5.703208 0.233955
H 1.766198 5.045509 1.502738
H 0.489404 1.140504 1.820167
H -1.652473 1.667351 0.646715
