372
cid:69, pot: -221.19142131332765
Pd 0.866124 6.581065 -1.022605
Pd -1.459388 -6.978203 0.852663
C 4.505291 -2.252949 2.096104
C 4.295709 -3.427778 2.295228
C 3.994622 -4.776299 2.562267
C 4.804301 -5.541736 3.383745
C 4.470490 -6.864633 3.695278
C 3.319533 -7.435096 3.214756
C 2.469076 -6.690190 2.370240
C 1.250250 -7.199810 1.882968
N 0.455896 -6.506874 1.094802
C 0.819215 -5.265145 0.685071
C 1.966596 -4.668506 1.122650
C 2.816568 -5.356475 2.012117
H 5.703569 -5.108001 3.794251
H 5.128439 -7.432259 4.335150
H 3.055906 -8.447767 3.474950
H 0.924541 -8.199403 2.159823
H 0.135890 -4.781643 -0.010452
H 2.235160 -3.674087 0.804548
C 4.726750 -0.882014 1.865014
C 5.865709 -0.251302 2.378933
C 6.075109 1.091301 2.153367
C 5.148464 1.834159 1.411481
C 4.007356 1.203714 0.902060
C 3.799773 -0.138705 1.124194
H 6.581298 -0.824329 2.949530
H 6.955766 1.577642 2.545636
H 3.301135 1.776877 0.323280
H 2.925138 -0.628572 0.726622
C 5.385840 3.198132 1.157793
C 5.600994 4.364038 0.913708
C 5.945955 5.686793 0.583466
C 7.241367 6.130015 0.786770
C 7.633483 7.414735 0.399183
C 6.749721 8.269304 -0.212391
C 5.419998 7.866515 -0.429879
C 4.463950 8.689426 -1.067464
C 3.184038 8.244918 -1.228324
N 2.778450 7.036209 -0.766293
C 3.646501 6.229685 -0.188095
C 4.995370 6.573039 -0.007763
H 7.961926 5.467007 1.240869
H 8.652063 7.726302 0.573591
H 7.061970 9.251350 -0.531226
H 4.758174 9.663579 -1.423969
H 2.429740 8.843971 -1.735376
H 3.278373 5.268528 0.164044
C -0.904397 -0.860488 5.521004
C -1.053635 -2.049173 5.689413
C -1.171971 -3.443235 5.847240
C -1.011198 -4.040651 7.085161
C -1.067502 -5.432093 7.227029
C -1.263686 -6.245757 6.140892
C -1.441601 -5.675419 4.862242
C -1.605340 -6.455301 3.701514
N -1.777442 -5.925530 2.508689
C -1.845242 -4.577852 2.367273
C -1.668027 -3.731875 3.424366
C -1.425139 -4.259805 4.708707
H -0.830819 -3.423239 7.952029
H -0.940017 -5.862162 8.208452
H -1.284923 -7.318105 6.252082
H -1.585517 -7.540771 3.764092
H -2.052627 -4.219819 1.361238
H -1.708634 -2.662297 3.294623
C -0.733609 0.518934 5.294601
C -0.915121 1.438870 6.333344
C -0.768091 2.787732 6.095983
C -0.430763 3.246345 4.816292
C -0.228651 2.323637 3.783559
C -0.381906 0.976083 4.018713
H -1.180045 1.086148 7.318979
H -0.917676 3.499230 6.894351
H 0.044060 2.678128 2.802730
H -0.230674 0.261532 3.225261
C -0.333624 4.630139 4.577768
C -0.294750 5.822483 4.372330
C -0.337868 7.217368 4.199402
C -0.627812 8.032575 5.280140
C -0.744722 9.417437 5.129086
C -0.594110 10.009608 3.899424
C -0.292614 9.222668 2.773617
C -0.143272 9.765602 1.477275
C 0.164314 8.947755 0.429415
N 0.362596 7.616143 0.590079
C 0.212004 7.068595 1.779910
C -0.136899 7.812954 2.917434
H -0.774370 7.588482 6.252827
H -0.970123 10.021353 5.994721
H -0.705740 11.076091 3.782690
H -0.278052 10.825047 1.328802
H 0.264154 9.329695 -0.584985
H 0.377517 5.996293 1.861237
C -5.007898 1.811719 -2.532456
C -4.785163 2.981833 -2.744452
C -4.467387 4.325262 -3.020581
C -5.225371 5.074242 -3.903549
C -4.869648 6.389776 -4.223107
C -3.748495 6.968872 -3.686401
C -2.953754 6.242097 -2.774232
C -1.769099 6.763049 -2.219817
N -1.029449 6.089327 -1.364227
C -1.420885 4.857894 -0.950332
C -2.536807 4.249963 -1.449921
C -3.324789 4.916274 -2.410305
H -6.098890 4.632720 -4.358671
H -5.486236 6.944022 -4.913845
H -3.466771 7.975272 -3.952142
H -1.425041 7.756305 -2.498390
H -0.790866 4.392714 -0.195424
H -2.827383 3.264284 -1.123610
C -5.241546 0.448149 -2.268983
C -4.190707 -0.364919 -1.827262
C -4.413010 -1.694995 -1.551084
C -5.692497 -2.241643 -1.702614
C -6.740017 -1.431537 -2.158829
C -6.516514 -0.102020 -2.441684
H -3.207381 0.061547 -1.708648
H -3.605385 -2.323660 -1.212863
H -7.725634 -1.854819 -2.282221
H -7.325758 0.523289 -2.788574
C -5.947957 -3.585238 -1.370026
C -6.186963 -4.726836 -1.045929
C -6.559346 -6.016431 -0.626411
C -7.876278 -6.424012 -0.752866
C -8.293610 -7.673256 -0.284417
C -7.412932 -8.526867 0.333154
C -6.063564 -8.158626 0.478563
C -5.109954 -8.981221 1.120124
C -3.812313 -8.570526 1.214695
N -3.388727 -7.396780 0.684590
C -4.251899 -6.592196 0.096444
C -5.615365 -6.902285 -0.024196
H -8.592842 -5.761098 -1.213233
H -9.328117 -7.957724 -0.401846
H -7.742953 -9.481216 0.712185
H -5.420271 -9.927821 1.533056
H -3.057716 -9.169143 1.721852
H -3.868114 -5.659382 -0.311230
C 0.590641 0.414515 -5.642083
C 0.757936 1.600001 -5.816759
C 0.892320 2.990765 -5.985102
C 0.811028 3.571496 -7.239091
C 0.885318 4.960073 -7.396748
C 1.017836 5.788617 -6.311897
C 1.108993 5.236178 -5.016597
C 1.197408 6.032157 -3.858508
N 1.283232 5.518841 -2.649550
C 1.332623 4.172718 -2.484401
C 1.225227 3.312586 -3.539183
C 1.075676 3.823008 -4.844652
H 0.682300 2.942517 -8.106854
H 0.822970 5.376718 -8.390286
H 1.053128 6.859049 -6.436805
H 1.188256 7.116481 -3.936950
H 1.461390 3.829952 -1.459545
H 1.247214 2.244685 -3.393299
C 0.384055 -0.960189 -5.420025
C 0.360398 -1.461960 -4.113024
C 0.150640 -2.803814 -3.889827
C -0.036436 -3.676710 -4.967850
C -0.013874 -3.175089 -6.275024
C 0.192403 -1.831728 -6.498487
H 0.512118 -0.788352 -3.284565
H 0.142358 -3.195409 -2.885394
H -0.157292 -3.848852 -7.106596
H 0.211398 -1.445306 -7.506537
C -0.215344 -5.055735 -4.749418
C -0.340527 -6.244620 -4.559661
C -0.396351 -7.641013 -4.402207
C -0.193523 -8.464175 -5.496312
C -0.168480 -9.855116 -5.357773
C -0.325466 -10.446060 -4.128333
C -0.544799 -9.650279 -2.989815
C -0.698216 -10.192173 -1.693454
C -0.929628 -9.364284 -0.633893
N -1.050174 -8.021662 -0.782368
C -0.888982 -7.475960 -1.971696
C -0.609169 -8.232392 -3.120326
H -0.040352 -8.022541 -6.469102
H -0.007952 -10.465654 -6.233312
H -0.282235 -11.518605 -4.021719
H -0.627857 -11.259149 -1.554304
H -1.029322 -9.747007 0.380198
H -0.990627 -6.395253 -2.043847
Pd 1.623067 -6.914152 0.659128
Pd -1.490441 6.480783 -1.253846
C 4.914030 2.581365 0.543100
C 4.656364 3.746242 0.342093
C 4.329471 5.082833 0.046795
C 5.315441 6.030708 -0.167058
C 4.987971 7.345072 -0.519060
C 3.681441 7.727626 -0.685259
C 2.646055 6.792769 -0.472264
C 1.288379 7.107802 -0.672724
N 0.321212 6.237438 -0.474189
C 0.610114 4.992358 -0.018069
C 1.895599 4.577631 0.180717
C 2.962694 5.462604 -0.074346
H 6.352483 5.748533 -0.066059
H 5.783385 8.057901 -0.673018
H 3.435158 8.735947 -0.977353
H 1.000483 8.099501 -1.012768
H -0.248561 4.352250 0.175055
H 2.113290 3.579769 0.525587
C 5.195907 1.219913 0.764340
C 6.519020 0.781413 0.891897
C 6.789157 -0.552452 1.103933
C 5.742252 -1.478479 1.189935
C 4.419727 -1.039852 1.057335
C 4.149345 0.293586 0.849219
H 7.326382 1.495617 0.827382
H 7.809345 -0.890918 1.207023
H 3.616050 -1.754353 1.133706
H 3.130938 0.635378 0.754044
C 6.024789 -2.834638 1.439154
C 6.262563 -3.996523 1.681705
C 6.589733 -5.312180 2.055441
C 7.854918 -5.593798 2.541059
C 8.186268 -6.875365 2.990767
C 7.260236 -7.889150 2.981870
C 5.965141 -7.652684 2.487405
C 4.959823 -8.645893 2.464328
C 3.729376 -8.355531 1.951166
N 3.437022 -7.139861 1.426281
C 4.340144 -6.179641 1.451797
C 5.622861 -6.360857 1.991853
H 8.592259 -4.806705 2.583661
H 9.182824 -7.058426 3.362751
H 7.512375 -8.870725 3.351460
H 5.176130 -9.626683 2.856648
H 2.926305 -9.090299 1.939642
H 4.061365 -5.219445 1.023131
C 2.343879 1.156697 -5.313393
C 2.118999 2.336929 -5.455519
C 1.882546 3.721027 -5.558624
C 2.563231 4.497884 -6.479703
C 2.371190 5.883233 -6.536583
C 1.518049 6.514556 -5.668258
C 0.797686 5.757103 -4.720118
C -0.061309 6.347924 -3.773877
N -0.738881 5.642994 -2.892370
C -0.657960 4.288566 -2.898735
C 0.169274 3.619516 -3.754729
C 0.953929 4.342376 -4.676073
H 3.259151 4.027808 -7.157880
H 2.917681 6.456109 -7.269676
H 1.389677 7.584642 -5.701958
H -0.182292 7.428200 -3.743710
H -1.295705 3.775383 -2.182416
H 0.235582 2.543471 -3.738005
C 2.586824 -0.217389 -5.123547
C 3.114047 -0.996981 -6.159135
C 3.326554 -2.344869 -5.970577
C 3.022040 -2.941912 -4.740811
C 2.514823 -2.156688 -3.699189
C 2.296157 -0.811114 -3.889267
H 3.344386 -0.538163 -7.109107
H 3.723991 -2.949422 -6.772181
H 2.293810 -2.615954 -2.749234
H 1.902148 -0.202694 -3.090691
C 3.197409 -4.329279 -4.580076
C 3.310821 -5.529058 -4.465465
C 3.403647 -6.931873 -4.435276
C 3.844827 -7.613071 -5.556835
C 3.885266 -9.010225 -5.583686
C 3.470233 -9.750220 -4.504096
C 3.019927 -9.102027 -3.340140
C 2.561686 -9.802934 -2.201520
C 2.151933 -9.112886 -1.098238
N 2.193341 -7.758850 -1.040008
C 2.594826 -7.068373 -2.088912
C 3.004546 -7.677621 -3.284940
H 4.153857 -7.054338 -6.427038
H 4.236699 -9.506825 -6.475086
H 3.482948 -10.828349 -4.535793
H 2.537441 -10.880746 -2.218279
H 1.772311 -9.620673 -0.213467
H 2.608289 -5.984238 -1.998250
C -4.849471 -2.999544 -0.861551
C -4.588083 -4.160328 -0.642426
C -4.252666 -5.491475 -0.330166
C -5.229354 -6.426688 -0.035968
C -4.888743 -7.732751 0.334969
C -3.576958 -8.118965 0.437309
C -2.550755 -7.197879 0.136357
C -1.185438 -7.518150 0.261248
N -0.226511 -6.662713 -0.024622
C -0.535354 -5.429896 -0.499814
C -1.828115 -5.009663 -0.628730
C -2.882962 -5.877117 -0.279491
H -6.268966 -6.140485 -0.085077
H -5.677675 -8.435392 0.554741
H -3.319293 -9.120004 0.744095
H -0.883942 -8.502025 0.612814
H 0.311940 -4.804768 -0.772620
H -2.058721 -4.021409 -0.992847
C -5.123754 -1.642074 -1.117082
C -4.138148 -0.676482 -0.878887
C -4.391077 0.650879 -1.141382
C -5.632335 1.043220 -1.655399
C -6.623080 0.078819 -1.879397
C -6.372664 -1.248751 -1.610637
H -3.182077 -0.984015 -0.486121
H -3.634821 1.396492 -0.957006
H -7.583056 0.382344 -2.269538
H -7.135294 -1.992457 -1.788273
C -5.886184 2.388489 -1.982263
C -6.098950 3.535211 -2.306698
C -6.397939 4.827922 -2.772659
C -7.636032 5.083044 -3.336968
C -7.941342 6.338529 -3.870772
C -7.014623 7.351775 -3.868694
C -5.745620 7.141285 -3.300523
C -4.740256 8.134570 -3.282150
C -3.534386 7.869970 -2.701260
N -3.267449 6.680955 -2.107012
C -4.171907 5.721831 -2.121429
C -5.430908 5.877111 -2.721867
H -8.373264 4.295597 -3.372146
H -8.917644 6.501221 -4.301201
H -7.246347 8.312726 -4.300385
H -4.936686 9.094462 -3.732508
H -2.730912 8.604385 -2.689794
H -3.913047 4.783371 -1.635611
C -1.958291 -1.507867 4.828880
C -1.721947 -2.683999 4.986082
C -1.477911 -4.064746 5.106776
C -2.102587 -4.819589 6.084738
C -1.903977 -6.202615 6.164671
C -1.102843 -6.855007 5.262838
C -0.444094 -6.121305 4.253248
C 0.352603 -6.735790 3.268311
N 0.968409 -6.053183 2.326307
C 0.884492 -4.698897 2.302751
C 0.115060 -4.008679 3.194653
C -0.604665 -4.708089 4.184597
H -2.757289 -4.333191 6.791854
H -2.403993 -6.757590 6.943519
H -0.969972 -7.923793 5.315618
H 0.474211 -7.816089 3.257268
H 1.468160 -4.205807 1.527730
H 0.041639 -2.933877 3.154378
C -2.232911 -0.142516 4.623462
C -1.656902 0.531624 3.539789
C -1.928446 1.864466 3.329483
C -2.778997 2.556175 4.199717
C -3.356011 1.882017 5.282902
C -3.087315 0.547362 5.491505
H -0.996142 -0.001892 2.875088
H -1.478382 2.389342 2.502354
H -4.011435 2.416203 5.954648
H -3.531034 0.028057 6.327752
C -3.032837 3.928031 4.012259
C -3.226468 5.113699 3.864886
C -3.410834 6.506181 3.795391
C -3.933534 7.184796 4.882632
C -4.058737 8.577221 4.871712
C -3.648979 9.315397 3.788783
C -3.121548 8.668275 2.657113
C -2.666603 9.367816 1.516322
C -2.185046 8.676891 0.442780
N -2.153002 7.321401 0.414770
C -2.545562 6.633757 1.468961
C -3.021110 7.246553 2.638627
H -4.237422 6.629206 5.756520
H -4.470965 9.072660 5.737548
H -3.725498 10.391384 3.793263
H -2.702576 10.445461 1.507231
H -1.805588 9.185416 -0.441579
H -2.499205 5.548862 1.403899
