372
cid:57, pot: -241.84282487516938
Pd -1.669003 6.770619 1.438228
Pd 1.405733 -6.537061 -1.057776
C 5.512217 -0.195477 0.482574
C 5.783410 -1.360583 0.301517
C 6.053699 -2.732363 0.141412
C 7.292927 -3.260138 0.460891
C 7.540224 -4.633681 0.357138
C 6.555613 -5.500953 -0.042127
C 5.279647 -5.002758 -0.381366
C 4.212509 -5.843435 -0.751719
N 3.021868 -5.380740 -1.068974
C 2.795733 -4.042748 -1.089277
C 3.754457 -3.143827 -0.719514
C 5.025661 -3.602957 -0.319332
H 8.077648 -2.601345 0.800787
H 8.520083 -5.008308 0.610249
H 6.744834 -6.560928 -0.100002
H 4.347878 -6.921840 -0.776988
H 1.803336 -3.739296 -1.417187
H 3.556816 -2.084055 -0.721969
C 5.175728 1.154153 0.699795
C 6.140522 2.061321 1.152955
C 5.804613 3.379756 1.367918
C 4.495379 3.819963 1.137640
C 3.530060 2.911063 0.689134
C 3.866398 1.594364 0.470718
H 7.150595 1.722483 1.328885
H 6.549386 4.081231 1.713178
H 2.525564 3.255877 0.503825
H 3.126399 0.893571 0.118139
C 4.167928 5.175501 1.328481
C 3.889985 6.345778 1.464154
C 3.646501 7.728294 1.548432
C 4.710977 8.610123 1.620103
C 4.503201 9.992597 1.628991
C 3.237130 10.517775 1.547766
C 2.124196 9.660429 1.484201
C 0.796254 10.133806 1.383158
C -0.240248 9.247256 1.346680
N -0.045469 7.908148 1.435011
C 1.179806 7.426456 1.505568
C 2.317384 8.248497 1.510602
H 5.717478 8.222092 1.657252
H 5.357255 10.650134 1.685878
H 3.082021 11.585127 1.531326
H 0.615554 11.195641 1.333239
H -1.272531 9.577665 1.245912
H 1.289372 6.346168 1.571266
C 1.378501 -2.047750 5.217032
C 1.697686 -3.192501 4.990596
C 2.109236 -4.501932 4.677007
C 2.854114 -5.252355 5.569881
C 3.314466 -6.529779 5.229772
C 3.058201 -7.067621 3.994748
C 2.293911 -6.338445 3.058773
C 2.030775 -6.815406 1.760472
N 1.313127 -6.139738 0.887798
C 0.757724 -4.952667 1.238829
C 0.976968 -4.387524 2.462378
C 1.786452 -5.053707 3.404807
H 3.090365 -4.841200 6.539587
H 3.890503 -7.086502 5.952714
H 3.433186 -8.043279 3.729753
H 2.430616 -7.773878 1.437962
H 0.127000 -4.486669 0.484948
H 0.542149 -3.435739 2.722219
C 0.995884 -0.712967 5.451954
C 0.867139 -0.228530 6.758461
C 0.470122 1.072124 6.977690
C 0.198556 1.918900 5.895586
C 0.348408 1.439216 4.589361
C 0.738761 0.137630 4.369853
H 1.071614 -0.882419 7.593143
H 0.360775 1.444144 7.985480
H 0.151798 2.096769 3.758079
H 0.852187 -0.237544 3.365164
C -0.254623 3.229615 6.136154
C -0.684732 4.340235 6.352782
C -1.244308 5.586496 6.686211
C -1.420372 5.923811 8.017318
C -2.034758 7.125253 8.382549
C -2.499728 7.999251 7.431051
C -2.337557 7.702247 6.066095
C -2.808968 8.548356 5.036796
C -2.605700 8.208298 3.731216
N -1.933950 7.085282 3.376389
C -1.496822 6.259874 4.306876
C -1.682916 6.496945 5.677617
H -1.084941 5.242334 8.784060
H -2.153385 7.355283 9.430336
H -2.992106 8.915553 7.716407
H -3.329823 9.456341 5.295457
H -2.975333 8.825642 2.914448
H -0.966376 5.369388 3.975965
C -5.767414 0.491464 -0.379926
C -6.029594 1.660985 -0.214998
C -6.286384 3.037432 -0.068424
C -7.494434 3.586968 -0.460557
C -7.722507 4.965114 -0.371226
C -6.748829 5.814172 0.088603
C -5.506148 5.292541 0.507547
C -4.451134 6.112945 0.950331
N -3.293319 5.628241 1.347247
C -3.094132 4.286539 1.380737
C -4.041473 3.405575 0.943814
C -5.273729 3.888446 0.458423
H -8.268321 2.942693 -0.849300
H -8.677892 5.357362 -0.684067
H -6.921757 6.877527 0.135491
H -4.568718 7.193869 0.968042
H -2.135648 3.962788 1.780352
H -3.863543 2.342321 0.961358
C -5.433610 -0.864484 -0.562443
C -4.088929 -1.243143 -0.656831
C -3.752114 -2.567992 -0.818475
C -4.751145 -3.546150 -0.881853
C -6.096626 -3.165263 -0.802440
C -6.434369 -1.838818 -0.647349
H -3.322556 -0.486343 -0.603950
H -2.717808 -2.862026 -0.893483
H -6.867645 -3.919095 -0.858118
H -7.471813 -1.546347 -0.581101
C -4.420771 -4.910095 -0.989698
C -4.145956 -6.088006 -1.038804
C -3.908690 -7.474083 -1.024237
C -4.979041 -8.351884 -1.008797
C -4.779045 -9.732970 -0.926194
C -3.514067 -10.260020 -0.838511
C -2.395727 -9.407660 -0.856927
C -1.068752 -9.882722 -0.751632
C -0.026897 -9.002687 -0.791186
N -0.216283 -7.670568 -0.957634
C -1.439838 -7.186178 -1.038976
C -2.581965 -7.999309 -0.974853
H -5.984018 -7.960778 -1.052540
H -5.637653 -10.386917 -0.918266
H -3.364295 -11.324791 -0.753725
H -0.893084 -10.940507 -0.637212
H 1.005540 -9.332613 -0.690232
H -1.544202 -6.111026 -1.168542
C -1.362294 2.343702 -4.866543
C -1.666482 3.494680 -4.650682
C -2.066162 4.810421 -4.351176
C -2.740402 5.583241 -5.280959
C -3.189032 6.869414 -4.960008
C -2.994470 7.394004 -3.707851
C -2.307472 6.640316 -2.732509
C -2.117200 7.100540 -1.415483
N -1.476104 6.399418 -0.504514
C -0.929772 5.200386 -0.829482
C -1.081777 4.651460 -2.070248
C -1.809739 5.346309 -3.057366
H -2.927395 5.183739 -6.266165
H -3.706918 7.444461 -5.712147
H -3.360854 8.377110 -3.458978
H -2.512389 8.066231 -1.110093
H -0.367553 4.710455 -0.036843
H -0.658729 3.689535 -2.310889
C -1.014335 0.999125 -5.096409
C -0.441988 0.239112 -4.069090
C -0.107417 -1.078252 -4.285888
C -0.333231 -1.666157 -5.535869
C -0.906553 -0.906692 -6.563172
C -1.244793 0.410602 -6.345376
H -0.262345 0.696685 -3.109159
H 0.343185 -1.663433 -3.500508
H -1.079815 -1.360193 -7.527721
H -1.685371 0.996583 -7.138071
C 0.039473 -3.002095 -5.776271
C 0.386962 -4.142032 -5.988211
C 0.854469 -5.427294 -6.315870
C 0.951762 -5.804821 -7.643955
C 1.482825 -7.047019 -8.003753
C 1.941675 -7.922552 -7.050715
C 1.853385 -7.586472 -5.688051
C 2.320850 -8.433377 -4.657532
C 2.185435 -8.055454 -3.353516
N 1.582757 -6.893187 -2.999792
C 1.155786 -6.065088 -3.932650
C 1.281164 -6.338985 -5.303451
H 0.622967 -5.122713 -8.413009
H 1.543041 -7.307618 -9.049485
H 2.372267 -8.870354 -7.333292
H 2.784188 -9.372678 -4.914015
H 2.555359 -8.673351 -2.537331
H 0.682029 -5.142717 -3.603635
Pd -3.192689 6.055579 1.198022
Pd 3.109251 -6.072344 -1.246714
C 0.780851 -2.322198 5.075207
C 1.297336 -3.396027 4.865751
C 1.846210 -4.659516 4.577884
C 1.900565 -5.652834 5.540538
C 2.392163 -6.927056 5.234950
C 2.813258 -7.236801 3.966988
C 2.778457 -6.251129 2.957737
C 3.150495 -6.517481 1.626063
N 3.119156 -5.599435 0.683423
C 2.758387 -4.326585 0.985796
C 2.352533 -3.970850 2.239878
C 2.318646 -4.938644 3.264160
H 1.552567 -5.441370 6.540267
H 2.423914 -7.674676 6.012491
H 3.171228 -8.226242 3.731299
H 3.472356 -7.514636 1.336117
H 2.813498 -3.615286 0.163984
H 2.050451 -2.960465 2.463313
C 0.171393 -1.072813 5.297808
C -0.314674 -0.737073 6.566744
C -0.913957 0.484998 6.777768
C -1.043620 1.397679 5.723666
C -0.561720 1.059149 4.453933
C 0.040574 -0.160491 4.243705
H -0.213187 -1.440030 7.380152
H -1.285101 0.746652 7.757441
H -0.654786 1.768268 3.647256
H 0.419366 -0.420971 3.268154
C -1.627885 2.657147 5.954919
C -2.103826 3.751706 6.156822
C -2.578458 5.038412 6.467924
C -2.677465 5.432696 7.791012
C -3.074033 6.729858 8.129466
C -3.359121 7.657994 7.158558
C -3.282722 7.299744 5.800801
C -3.546944 8.209184 4.751626
C -3.475073 7.790368 3.455065
N -3.184296 6.506800 3.128366
C -2.907541 5.634609 4.077573
C -2.914860 5.970759 5.440222
H -2.432284 4.729329 8.572142
H -3.140264 7.002019 9.171843
H -3.642090 8.664790 7.423038
H -3.801388 9.229992 4.987977
H -3.649914 8.470692 2.623482
H -2.676231 4.617152 3.769797
C -3.996479 -3.974270 0.906078
C -3.433314 -5.032906 0.745282
C -2.728927 -6.243294 0.600140
C -3.252326 -7.437380 1.064290
C -2.522018 -8.628126 0.974402
C -1.258373 -8.643538 0.442077
C -0.692172 -7.448681 -0.051240
C 0.614853 -7.388518 -0.571218
N 1.143023 -6.276420 -1.037435
C 0.408005 -5.136321 -1.068858
C -0.858346 -5.080418 -0.561020
C -1.438465 -6.236914 -0.001501
H -4.235290 -7.447175 1.510259
H -2.963624 -9.540313 1.344759
H -0.691422 -9.559511 0.394576
H 1.236723 -8.280328 -0.593472
H 0.892082 -4.276460 -1.526566
H -1.425243 -4.163421 -0.578130
C -4.627315 -2.727538 1.081808
C -6.014929 -2.648297 1.244348
C -6.624832 -1.422103 1.392609
C -5.860380 -0.248605 1.387365
C -4.470390 -0.331031 1.246100
C -3.861249 -1.555575 1.091334
H -6.605371 -3.552396 1.243517
H -7.696600 -1.358998 1.508108
H -3.882734 0.572712 1.255835
H -2.790839 -1.623814 0.978606
C -6.503293 0.999451 1.489320
C -7.068581 2.068987 1.534181
C -7.802591 3.268343 1.520274
C -9.184837 3.225822 1.584726
C -9.947724 4.394635 1.505526
C -9.349257 5.619586 1.342154
C -7.947521 5.713002 1.277853
C -7.269174 6.939003 1.092174
C -5.905620 6.962005 1.053600
N -5.162182 5.839816 1.216412
C -5.758049 4.673999 1.371203
C -7.154303 4.533921 1.390949
H -9.680016 2.272476 1.688958
H -11.023112 4.322743 1.561057
H -9.941786 6.517217 1.260321
H -7.839413 7.847057 0.978976
H -5.352840 7.885226 0.889657
H -5.121859 3.800056 1.494640
C -0.614612 2.442284 -5.112920
C -1.115331 3.521819 -4.894648
C -1.649974 4.788891 -4.593565
C -1.635319 5.812742 -5.524484
C -2.110855 7.088792 -5.200490
C -2.586889 7.367847 -3.945128
C -2.627855 6.348597 -2.969674
C -3.065769 6.579291 -1.651616
N -3.110555 5.628898 -0.741791
C -2.766179 4.358042 -1.069443
C -2.299014 4.034729 -2.311084
C -2.183211 5.035933 -3.296644
H -1.242589 5.625187 -6.512261
H -2.085867 7.861667 -5.953125
H -2.932279 8.357901 -3.693953
H -3.377930 7.574767 -1.344877
H -2.890405 3.618687 -0.281383
H -2.013991 3.023445 -2.552896
C -0.037007 1.177759 -5.337869
C 0.391956 0.405767 -4.251341
C 0.942388 -0.838505 -4.460087
C 1.069808 -1.343493 -5.759171
C 0.654334 -0.564689 -6.846676
C 0.109539 0.683233 -6.638655
H 0.288478 0.797610 -3.252010
H 1.275297 -1.434015 -3.625583
H 0.758902 -0.951454 -7.849357
H -0.215193 1.281144 -7.477290
C 1.577839 -2.636548 -5.984869
C 1.972892 -3.762996 -6.186233
C 2.353347 -5.080637 -6.497182
C 2.367555 -5.495684 -7.817766
C 2.675459 -6.816702 -8.156158
C 2.954569 -7.747999 -7.186487
C 2.958398 -7.371231 -5.831672
C 3.218846 -8.283198 -4.783724
C 3.221849 -7.848924 -3.490293
N 3.007961 -6.549737 -3.167015
C 2.741111 -5.672569 -4.114400
C 2.679636 -6.020121 -5.472763
H 2.128159 -4.788143 -8.596801
H 2.678312 -7.103708 -9.196602
H 3.171028 -8.771348 -7.449894
H 3.410067 -9.318159 -5.018436
H 3.396349 -8.529011 -2.658367
H 2.572758 -4.642132 -3.808479
C 3.976225 3.925619 -0.675697
C 3.424265 4.987762 -0.499484
C 2.733777 6.203910 -0.342024
C 3.299406 7.404681 -0.735256
C 2.587151 8.604996 -0.632621
C 1.299569 8.624829 -0.160950
C 0.688067 7.422811 0.254694
C -0.645644 7.367363 0.702533
N -1.217557 6.247402 1.091305
C -0.505974 5.092015 1.111714
C 0.784728 5.032409 0.670748
C 1.414867 6.199801 0.193999
H 4.303067 7.412536 -1.132536
H 3.062439 9.522283 -0.944553
H 0.747490 9.549324 -0.103846
H -1.252244 8.269142 0.730581
H -1.033270 4.222737 1.500015
H 1.333882 4.104708 0.674538
C 4.598530 2.680630 -0.886729
C 3.918551 1.496894 -0.575289
C 4.519081 0.276706 -0.787275
C 5.815124 0.210831 -1.311812
C 6.494972 1.394406 -1.624350
C 5.892894 2.615465 -1.415702
H 2.922887 1.550739 -0.164408
H 4.002641 -0.636378 -0.538754
H 7.495228 1.343260 -2.028146
H 6.417886 3.528093 -1.655218
C 6.449688 -1.031910 -1.497519
C 7.002951 -2.100340 -1.629338
C 7.724708 -3.304335 -1.714727
C 9.100052 -3.271206 -1.866895
C 9.853010 -4.449143 -1.879630
C 9.252329 -5.673885 -1.722369
C 7.856258 -5.757344 -1.575240
C 7.176339 -6.983064 -1.393420
C 5.816823 -6.995372 -1.277967
N 5.077058 -5.861877 -1.362234
C 5.676249 -4.696397 -1.506804
C 7.070967 -4.567980 -1.596568
H 9.598453 -2.319002 -1.964945
H 10.923676 -4.384890 -2.000509
H 9.839106 -6.578951 -1.709296
H 7.741987 -7.899794 -1.345015
H 5.264806 -7.918991 -1.114010
H 5.044073 -3.813090 -1.565972
