336
cid:69, pot: -236.26245610742868
C -1.527356 0.078277 3.565416
C -2.975285 0.184918 3.675685
C -0.752081 1.223770 3.430496
C 0.638461 1.137332 3.362911
H -1.205621 2.202232 3.389515
C 1.247122 -0.110637 3.421631
C 0.482055 -1.269195 3.556984
H 2.320969 -0.209770 3.378354
C -0.902380 -1.167473 3.623025
C 1.124600 -2.571814 3.659085
H -1.521181 -2.044763 3.734164
C 1.450028 2.342120 3.262429
H 0.451919 -3.442247 3.610298
H -3.398913 1.180075 3.469288
H 2.520755 2.182401 3.061460
C -4.475924 -1.563464 -0.325443
C -4.811921 -1.952677 1.036766
C -4.002059 -2.511906 -1.224018
C -3.713722 -2.160615 -2.542789
H -3.860891 -3.539760 -0.926707
C -3.894618 -0.844958 -2.952337
C -4.369501 0.118004 -2.061764
H -3.686526 -0.543375 -3.967448
C -4.652713 -0.246804 -0.750967
C -4.596104 1.486331 -2.505025
H -5.027415 0.473820 -0.040217
C -3.256342 -3.165482 -3.492024
H -4.821742 2.215452 -1.711392
H -4.500776 -2.965971 1.334870
H -2.905103 -2.782279 -4.462647
C 2.766226 -3.281989 -0.597545
C 3.469354 -3.292378 0.677383
C 3.208908 -2.464105 -1.630317
C 2.568351 -2.473497 -2.869331
H 4.063027 -1.817021 -1.501828
C 1.470978 -3.304011 -3.062568
C 1.015133 -4.130410 -2.035352
H 0.958098 -3.338619 -4.011498
C 1.663524 -4.110440 -0.806183
C -0.109800 -5.028827 -2.253786
H 1.338560 -4.742802 0.005884
C 3.060039 -1.645483 -3.961517
H -0.503097 -5.530403 -1.356045
H 4.227035 -2.504801 0.811856
H 2.413194 -1.592757 -4.850994
C 0.607821 3.833877 -1.024750
C 0.458501 4.534206 0.243080
C -0.465378 3.747849 -1.903478
C -0.324612 3.113836 -3.137965
H -1.423167 4.180107 -1.657578
C 0.900954 2.556039 -3.481452
C 1.987171 2.634384 -2.609665
H 1.043131 2.064496 -4.431712
C 1.832067 3.269250 -1.383139
C 3.280716 2.084304 -2.989702
H 2.655162 3.351791 -0.690007
C -1.439600 3.061389 -4.072979
H 4.038659 2.048391 -2.191758
H -0.570890 4.813659 0.516474
H -1.296876 2.414428 -4.952370
C -5.107196 -0.647094 4.132816
C -5.775718 -1.613834 3.134513
N -3.690864 -0.795763 4.015027
N -5.445334 -1.186439 1.811593
C -7.296706 -1.564883 3.302856
H -5.405509 -2.634014 3.343396
C -7.700779 -1.916345 4.729419
H -7.751436 -2.260780 2.594573
H -7.638438 -0.559508 3.050784
C -7.038222 -0.962988 5.718076
H -7.393997 -2.940911 4.952359
H -8.786940 -1.862188 4.826522
C -5.523141 -1.006563 5.561846
H -7.309058 -1.234926 6.740265
H -7.393704 0.053729 5.535291
H -5.149240 -2.006683 5.787465
H -5.047687 -0.307143 6.252802
H -5.436521 0.379580 3.890456
C 2.960822 -3.984526 3.939351
C 3.970047 -4.156710 2.786036
N 2.368913 -2.689213 3.822463
N 3.242868 -4.167396 1.555986
C 4.706442 -5.490804 2.934907
H 4.690947 -3.320419 2.832428
C 5.420563 -5.574549 4.278277
H 5.421291 -5.591030 2.115309
H 3.977569 -6.298030 2.844034
C 4.424370 -5.401608 5.419833
H 6.178840 -4.790245 4.336627
H 5.926606 -6.538243 4.364853
C 3.688044 -4.074630 5.283715
H 4.944060 -5.435523 6.379463
H 3.703017 -6.221692 5.399027
H 4.392538 -3.243710 5.349823
H 2.957286 -3.959084 6.087084
H 2.209065 -4.790905 3.861805
C 1.790364 4.649643 3.339816
C 1.264828 5.534014 2.191024
N 0.958192 3.491138 3.425457
N 1.450614 4.826231 0.963673
C 2.063003 6.839265 2.133086
H 0.198796 5.751796 2.384880
C 1.981462 7.589561 3.456774
H 1.671670 7.454832 1.320336
H 3.101371 6.597372 1.899880
C 2.498277 6.715304 4.594310
H 0.943202 7.866075 3.654675
H 2.567737 8.508500 3.393780
C 1.707992 5.414496 4.663622
H 2.413115 7.246837 5.544224
H 3.554414 6.490927 4.428112
H 0.657728 5.621976 4.876069
H 2.091787 4.776510 5.462740
H 2.841270 4.388056 3.119429
C -2.852124 -5.355586 -4.189404
C -1.672538 -6.141991 -3.582539
N -3.290196 -4.396838 -3.224761
N -0.580476 -5.237705 -3.404279
C -1.240566 -7.253711 -4.542579
H -2.007378 -6.579331 -2.624490
C -2.400204 -8.193593 -4.848529
H -0.411314 -7.804042 -4.092825
H -0.876488 -6.791895 -5.461998
C -3.568587 -7.416928 -5.446116
H -2.723801 -8.683770 -3.927448
H -2.070269 -8.968395 -5.543576
C -4.009539 -6.309846 -4.496570
H -4.406686 -8.089608 -5.638894
H -3.263195 -6.978586 -6.399104
H -4.361551 -6.737392 -3.556191
H -4.830874 -5.737223 -4.932705
H -2.502083 -4.874555 -5.120718
C -4.810783 3.154013 -4.123613
C -3.553304 3.677997 -4.846532
N -4.563592 1.804506 -3.724265
N -2.487680 3.739024 -3.896695
C -3.813559 5.086983 -5.386523
H -3.324436 2.990232 -5.680752
C -5.009220 5.098754 -6.330934
H -2.916409 5.437217 -5.901525
H -3.994793 5.751540 -4.539977
C -6.252813 4.578240 -5.618210
H -4.795703 4.466769 -7.196040
H -5.181266 6.114932 -6.691489
C -6.006249 3.174250 -5.080085
H -7.100694 4.563376 -6.305970
H -6.502875 5.246194 -4.790685
H -5.800883 2.485881 -5.901743
H -6.887552 2.808507 -4.548838
H -5.008795 3.811493 -3.257710
C 4.630206 -0.264859 -4.998274
C 4.809414 1.186026 -4.507238
N 4.170504 -1.052541 -3.898369
N 3.521172 1.702046 -4.166463
C 5.403817 2.044020 -5.627435
H 5.492385 1.173180 -3.638472
C 6.736865 1.478216 -6.101149
H 5.531129 3.064171 -5.258905
H 4.691234 2.072742 -6.453525
C 6.561862 0.042600 -6.584477
H 7.454072 1.498620 -5.277214
H 7.133046 2.099538 -6.906848
C 5.974268 -0.821629 -5.475583
H 7.523917 -0.367675 -6.897865
H 5.893362 0.029737 -7.448445
H 6.654720 -0.855504 -4.622949
H 5.826004 -1.845026 -5.826892
H 3.906185 -0.258415 -5.833159
C 4.332113 -0.782110 2.182756
C 4.141844 -1.850630 3.153373
C 4.310338 0.545291 2.593770
C 4.529826 1.576165 1.680135
H 4.137992 0.806231 3.626677
C 4.762051 1.265847 0.345601
C 4.786814 -0.061849 -0.081751
H 4.941612 2.040690 -0.383926
C 4.566388 -1.078347 0.839932
C 5.070541 -0.385727 -1.472705
H 4.585614 -2.115441 0.541377
C 4.546722 2.963786 2.121292
H 4.922112 -1.438680 -1.758651
H 3.813090 -1.534000 4.155355
H 4.573968 3.719896 1.321359
C -0.005297 -3.556806 2.054177
C 1.275206 -4.240793 2.165402
C -0.749332 -3.657200 0.884631
C -1.995496 -3.039299 0.779204
H -0.387685 -4.224763 0.040959
C -2.486884 -2.309079 1.854646
C -1.751451 -2.199416 3.034921
H -3.450182 -1.824910 1.806221
C -0.511546 -2.820547 3.125480
C -2.287320 -1.467283 4.173847
H 0.078165 -2.759373 4.027304
C -2.790129 -3.180599 -0.432651
H -1.586524 -1.296678 5.005887
H 1.671554 -4.667995 1.231177
H -3.684221 -2.541157 -0.496087
C 1.268354 1.015787 -3.685623
C 2.658728 1.381810 -3.915347
C 0.314131 2.003710 -3.472976
C -1.027620 1.668985 -3.290694
H 0.586594 3.047851 -3.458544
C -1.405134 0.331735 -3.313003
C -0.458767 -0.670856 -3.525288
H -2.436182 0.041158 -3.181503
C 0.874545 -0.322193 -3.705522
C -0.863789 -2.068077 -3.588231
H 1.629018 -1.074435 -3.878189
C -2.030363 2.709025 -3.108907
H -0.044741 -2.803620 -3.603830
H 2.911684 2.437720 -3.731855
H -3.033982 2.360996 -2.819097
C 0.120343 3.812782 3.121484
C 1.301663 3.960823 3.959748
C -0.953559 3.047535 3.560250
C -2.106736 2.929522 2.784377
H -0.925074 2.541636 4.513101
C -2.171299 3.577863 1.556914
C -1.101151 4.349276 1.103183
H -3.051865 3.510974 0.936617
C 0.041235 4.457863 1.887112
C -1.187947 5.059963 -0.164753
H 0.882976 5.052429 1.566588
C -3.245551 2.160346 3.265718
H -0.252026 5.516566 -0.522563
H 1.348760 3.301108 4.840099
H -4.050368 1.988017 2.534376
C 4.190714 -4.076268 3.853651
C 3.118087 -5.058141 3.340164
N 4.368927 -3.057271 2.867842
N 1.873291 -4.360049 3.268467
C 2.972205 -6.226662 4.318621
H 3.439366 -5.431963 2.350996
C 4.300286 -6.948592 4.510430
H 2.215560 -6.914295 3.934737
H 2.614966 -5.834180 5.272265
C 5.362787 -5.978387 5.015443
H 4.622663 -7.376116 3.558111
H 4.172709 -7.768113 5.220530
C 5.519138 -4.812689 4.046693
H 6.319044 -6.493713 5.125872
H 5.070154 -5.598823 5.997162
H 5.856840 -5.173487 3.073685
H 6.262909 -4.104530 4.418157
H 3.844623 -3.662332 4.818047
C 5.775344 0.121423 -3.638824
C 4.858813 0.950232 -4.561544
N 5.487670 0.481896 -2.286365
N 3.508308 0.546465 -4.326870
C 5.208608 0.673119 -6.026201
H 5.016078 2.019619 -4.331717
C 6.671212 0.993053 -6.309210
H 4.555916 1.274054 -6.663125
H 5.004962 -0.378405 -6.235441
C 7.578796 0.176342 -5.395607
H 6.849951 2.057522 -6.140695
H 6.898138 0.775646 -7.354974
C 7.241772 0.447346 -3.934590
H 8.624494 0.428326 -5.583207
H 7.445807 -0.886842 -5.608461
H 7.415266 1.498104 -3.695981
H 7.874737 -0.154101 -3.278576
H 5.580038 -0.949108 -3.831589
C 4.596752 4.646280 3.737885
C 3.329949 4.942090 4.565864
N 4.559285 3.273405 3.343060
N 2.195904 4.812184 3.706217
C 3.381628 6.375862 5.100502
H 3.294394 4.226556 5.407398
C 4.629257 6.599756 5.945999
H 2.481817 6.563806 5.690099
H 3.373993 7.060368 4.250484
C 5.882942 6.304966 5.129420
H 4.600900 5.941530 6.817521
H 4.648833 7.630985 6.304287
C 5.843799 4.878527 4.595319
H 6.773162 6.440732 5.746752
H 5.943784 7.005060 4.293017
H 5.830006 4.166314 5.422229
H 6.729665 4.672634 3.990488
H 4.605084 5.326481 2.866882
C -3.300448 -4.131235 -2.502019
C -2.435167 -3.787785 -3.731422
N -2.484937 -4.005668 -1.335501
N -2.076336 -2.406915 -3.650433
C -3.241051 -4.013491 -5.013463
H -1.547776 -4.446395 -3.722241
C -3.737128 -5.451466 -5.101853
H -2.610256 -3.773552 -5.872100
H -4.085643 -3.322247 -5.014888
C -4.590711 -5.793580 -3.885395
H -2.881482 -6.129215 -5.146711
H -4.318360 -5.582980 -6.016819
C -3.796565 -5.576283 -2.603214
H -4.921658 -6.832606 -3.939646
H -5.479069 -5.157771 -3.875264
H -2.930447 -6.239823 -2.578906
H -4.413470 -5.798098 -1.729727
H -4.160318 -3.437340 -2.481823
C -3.982817 -0.382572 5.355204
C -4.456516 1.011674 4.896815
N -3.486641 -1.081145 4.211773
N -3.313539 1.745977 4.454175
C -5.095507 1.755906 6.072553
H -5.197978 0.874682 4.088905
C -6.262478 0.965471 6.651268
H -5.431689 2.735944 5.727172
H -4.331269 1.913746 6.835652
C -5.796123 -0.414522 7.102419
H -7.039614 0.855315 5.891428
H -6.691872 1.510477 7.494397
C -5.161985 -1.166002 5.938513
H -6.640423 -0.987097 7.491691
H -5.064718 -0.305301 7.906467
H -5.895948 -1.323332 5.146147
H -4.806012 -2.145639 6.264745
H -3.202888 -0.244708 6.125842
C -2.782807 4.918019 -3.133010
C -2.325607 5.889500 -2.026054
N -1.767618 3.926675 -3.301161
N -2.274777 5.167170 -0.794136
C -3.336180 7.031370 -1.886841
H -1.336601 6.293011 -2.309537
C -3.505979 7.775323 -3.205665
H -2.991681 7.712283 -1.105663
H -4.290098 6.609026 -1.566430
C -3.955345 6.815463 -4.301987
H -2.555216 8.231948 -3.490691
H -4.239346 8.575002 -3.083394
C -2.954237 5.676623 -4.451896
H -4.049897 7.347435 -5.250742
H -4.935707 6.406630 -4.046562
H -1.980564 6.067291 -4.752891
H -3.285978 4.975133 -5.220348
H -3.746724 4.474259 -2.824542
