308
cid:69, pot: -179.1782743612959
Pd -0.704649 4.507412 -0.940980
Pd 0.205761 -4.654924 0.433935
C 5.609541 -2.136788 -0.922974
C 5.518135 -3.334554 -0.778949
C 5.486091 -4.742132 -0.751024
C 6.650158 -5.452247 -0.984598
C 6.637334 -6.847430 -1.084571
C 5.462744 -7.550994 -0.987349
C 4.256072 -6.872075 -0.738294
C 3.009371 -7.532442 -0.656028
C 1.879548 -6.818648 -0.382253
N 1.913825 -5.485758 -0.136493
C 3.052214 -4.828008 -0.239215
C 4.261924 -5.455974 -0.575088
H 7.580368 -4.918937 -1.107317
H 7.565566 -7.368091 -1.264467
H 5.450615 -8.623531 -1.101896
H 2.963987 -8.597847 -0.815584
H 0.899183 -7.289397 -0.348274
H 3.032206 -3.759726 -0.037653
C 5.692250 -0.752457 -1.185949
C 6.919917 -0.178534 -1.531977
C 6.978374 1.161847 -1.866614
C 5.833502 1.940639 -1.867983
C 4.600855 1.383005 -1.519135
C 4.542934 0.035148 -1.168952
H 7.812093 -0.785516 -1.544036
H 7.925105 1.602601 -2.139951
H 5.898624 2.972590 -2.174715
H 3.612397 -0.411470 -0.857565
C 3.375008 2.186768 -1.531195
C 3.372274 3.547086 -1.206012
C 2.179680 4.240681 -1.178456
N 1.009760 3.650139 -1.438927
C 0.991525 2.358722 -1.791861
C 2.142416 1.606786 -1.860888
H 4.288503 4.053418 -0.949509
H 2.141928 5.298335 -0.934398
H 0.011137 1.942813 -2.019629
H 2.098440 0.578678 -2.181954
C 1.925598 -1.579251 5.409014
C 1.918551 -2.788954 5.423860
C 1.823463 -4.186172 5.570943
C 2.153920 -4.766518 6.782451
C 1.957514 -6.133504 7.005796
C 1.399139 -6.933268 6.040056
C 1.057973 -6.389165 4.788351
C 0.453460 -7.149466 3.761981
C 0.174420 -6.567410 2.559951
N 0.502377 -5.279621 2.292233
C 1.035519 -4.527986 3.235689
C 1.307209 -5.010568 4.525406
H 2.554756 -4.150843 7.573000
H 2.229938 -6.552084 7.962591
H 1.214526 -7.979239 6.228502
H 0.214062 -8.185186 3.942263
H -0.324238 -7.112954 1.761741
H 1.279781 -3.500010 2.977636
C 1.837262 -0.170477 5.421279
C 2.169522 0.540071 6.579267
C 2.002103 1.912237 6.611600
C 1.503508 2.589432 5.511597
C 1.173121 1.894382 4.345390
C 1.354387 0.512901 4.307130
H 2.545992 0.013726 7.442884
H 2.252371 2.459275 7.507820
H 1.340758 3.653557 5.577628
H 1.146452 -0.043106 3.407100
C 0.626362 2.592216 3.177873
C 1.001250 3.898632 2.847634
C 0.492507 4.488339 1.708543
N -0.343623 3.844043 0.889427
C -0.745688 2.606158 1.203810
C -0.296952 1.960488 2.333582
H 1.704149 4.440790 3.458746
H 0.758509 5.502591 1.425453
H -1.447612 2.144737 0.510604
H -0.666412 0.977515 2.576732
C -6.108827 1.987784 0.411089
C -6.015725 3.186112 0.273434
C -5.982346 4.593837 0.253200
C -7.145381 5.303546 0.493538
C -7.131293 6.698192 0.601460
C -5.956417 7.401310 0.505228
C -4.750891 6.722994 0.249319
C -3.503923 7.382879 0.167437
C -2.375205 6.669798 -0.113003
N -2.411028 5.338215 -0.365678
C -3.549687 4.680716 -0.263837
C -4.758178 5.307740 0.078283
H -8.075612 4.770199 0.615650
H -8.058591 7.218456 0.786607
H -5.943123 8.473188 0.625709
H -3.457378 8.447394 0.332430
H -1.394728 7.140150 -0.146879
H -3.530836 3.613492 -0.471357
C -6.193222 0.602237 0.666811
C -7.422920 0.026379 1.001917
C -7.483286 -1.315587 1.329775
C -6.338136 -2.094144 1.335059
C -5.103437 -1.534569 0.997231
C -5.043627 -0.185034 0.653723
H -8.315396 0.632983 1.010993
H -8.431631 -1.757927 1.594743
H -6.405065 -3.127490 1.636514
H -4.111022 0.263277 0.350915
C -3.877408 -2.337894 1.013214
C -3.872192 -3.696562 0.681306
C -2.679137 -4.389534 0.657504
N -1.510882 -3.799876 0.927658
C -1.495523 -2.510297 1.287408
C -2.647035 -1.759136 1.353437
H -4.786620 -4.202009 0.416830
H -2.639521 -5.446032 0.408305
H -0.516719 -2.095173 1.523201
H -2.605327 -0.732840 1.680274
C -2.400843 1.432074 -5.926965
C -2.397776 2.641868 -5.939789
C -2.306898 4.039601 -6.084523
C -2.634011 4.620449 -7.296733
C -2.441630 5.988370 -7.517381
C -1.890483 6.788775 -6.548077
C -1.552856 6.244176 -5.295632
C -0.955276 7.005110 -4.265758
C -0.678954 6.422415 -3.063451
N -1.003367 5.133082 -2.798706
C -1.530124 4.380842 -3.745354
C -1.798209 4.864336 -5.035542
H -3.029166 4.004315 -8.089931
H -2.711323 6.407263 -8.474846
H -1.708856 7.835638 -6.734238
H -0.718820 8.042032 -4.443577
H -0.185364 6.968706 -2.262630
H -1.771678 3.351758 -3.489927
C -2.307656 0.023639 -5.940532
C -2.627508 -0.686254 -7.102383
C -2.455567 -2.057822 -7.135149
C -1.964566 -2.735183 -6.031769
C -1.646507 -2.040696 -4.861824
C -1.832513 -0.659913 -4.823183
H -2.997954 -0.159766 -7.968548
H -2.696312 -2.604302 -8.034339
H -1.797920 -3.798573 -6.097810
H -1.634278 -0.104485 -3.920555
C -1.107102 -2.738391 -3.690792
C -1.480291 -4.046416 -3.365093
C -0.978022 -4.636140 -2.223166
N -0.149949 -3.990381 -1.397098
C 0.250204 -2.750656 -1.706503
C -0.192446 -2.104727 -2.838537
H -2.176896 -4.589955 -3.982295
H -1.242867 -5.651612 -1.943303
H 0.945211 -2.287648 -1.007297
H 0.175061 -1.120056 -3.077406
Pd 1.488287 -1.681520 3.625371
Pd -1.923960 0.939986 -4.630039
C 0.115029 5.786154 -1.509144
C -0.428648 5.939291 -2.578981
C -1.153652 6.224807 -3.752037
C -1.323573 7.541412 -4.141271
C -2.136280 7.873434 -5.230324
C -2.816455 6.904124 -5.924512
C -2.664834 5.550740 -5.571859
C -3.358061 4.507237 -6.225792
C -3.143305 3.212238 -5.854620
N -2.241621 2.879103 -4.898447
C -1.601617 3.826140 -4.240715
C -1.793859 5.191914 -4.501917
H -0.833344 8.325693 -3.585104
H -2.242896 8.911309 -5.506979
H -3.471526 7.166426 -6.740436
H -4.055731 4.747566 -7.012060
H -3.687181 2.388036 -6.311509
H -0.891064 3.513280 -3.479428
C 0.660123 5.611087 -0.218861
C 1.094660 6.720875 0.513116
C 1.552327 6.550562 1.806710
C 1.579944 5.293673 2.387044
C 1.154503 4.174776 1.666528
C 0.705315 4.343517 0.357945
H 1.062730 7.703571 0.068314
H 1.881373 7.408385 2.373434
H 1.900500 5.193470 3.411988
H 0.408473 3.493002 -0.234399
C 1.160081 2.838474 2.269142
C 2.126259 2.444788 3.200695
C 2.116202 1.155407 3.692070
N 1.215729 0.251945 3.294388
C 0.256959 0.616844 2.434091
C 0.190052 1.890447 1.916165
H 2.895669 3.129462 3.518305
H 2.848732 0.817883 4.419524
H -0.463893 -0.156012 2.171063
H -0.614544 2.162992 1.252527
C 4.161595 0.640874 -4.845010
C 3.538101 0.907800 -5.846900
C 2.891228 1.102423 -7.082357
C 3.648425 1.250948 -8.230561
C 3.043755 1.324559 -9.489916
C 1.682227 1.217502 -9.626382
C 0.870876 1.077019 -8.485628
C -0.533061 0.932274 -8.557603
C -1.264948 0.829503 -7.410747
N -0.693061 0.908824 -6.184234
C 0.617516 1.008573 -6.075992
C 1.467915 1.060203 -7.191417
H 4.724067 1.294508 -8.153822
H 3.666456 1.443508 -10.363447
H 1.221947 1.237192 -10.601732
H -1.012461 0.899984 -9.522785
H -2.342238 0.679557 -7.430607
H 1.033413 1.066201 -5.072626
C 4.879034 0.231842 -3.700203
C 6.270102 0.099343 -3.758179
C 6.957988 -0.380717 -2.658976
C 6.283341 -0.737069 -1.503553
C 4.894519 -0.604353 -1.428024
C 4.201726 -0.107659 -2.530860
H 6.797654 0.363773 -4.661711
H 8.030913 -0.489108 -2.706546
H 6.838123 -1.150390 -0.676070
H 3.135102 0.043598 -2.486195
C 4.161698 -0.994328 -0.219786
C 4.709748 -0.859784 1.060013
C 3.955299 -1.196111 2.165325
N 2.698299 -1.636318 2.058709
C 2.164655 -1.808298 0.842753
C 2.862684 -1.513411 -0.306393
H 5.705886 -0.470939 1.194257
H 4.351566 -1.108742 3.172784
H 1.146642 -2.194687 0.821530
H 2.417161 -1.695681 -1.270813
C -0.555446 -6.526532 0.505967
C -0.005869 -6.679765 1.572757
C 0.725674 -6.965923 2.741559
C 0.901101 -8.283133 3.126723
C 1.720110 -8.615770 4.210888
C 2.400911 -7.646326 4.904154
C 2.243841 -6.292477 4.555764
C 2.937172 -5.248705 5.209134
C 2.717262 -3.953291 4.842255
N 1.810375 -3.620234 3.891019
C 1.169683 -4.567352 3.233903
C 1.366695 -5.933301 3.490998
H 0.410252 -9.067262 2.570905
H 1.830991 -9.653947 4.484170
H 3.060727 -7.908828 5.716167
H 3.639101 -5.489064 5.991554
H 3.260993 -3.128921 5.298842
H 0.454630 -4.254391 2.476952
C -1.107303 -6.351031 -0.781232
C -1.552177 -7.459604 -1.508740
C -2.016668 -7.289049 -2.799990
C -2.040961 -6.032927 -3.382246
C -1.605171 -4.915233 -2.666298
C -1.149257 -5.084199 -1.360068
H -1.522844 -8.441775 -1.062566
H -2.353654 -8.145988 -3.363314
H -2.366915 -5.932831 -4.405427
H -0.844007 -4.234232 -0.771129
C -1.607342 -3.579813 -3.270837
C -2.577111 -3.182537 -4.197009
C -2.563723 -1.893752 -4.690080
N -1.656639 -0.994033 -4.298647
C -0.694329 -1.362902 -3.443885
C -0.630421 -2.636168 -2.924964
H -3.351767 -3.863763 -4.509255
H -3.299043 -1.553497 -5.413480
H 0.031789 -0.593309 -3.186095
H 0.176983 -2.911837 -2.266238
C -4.597806 -1.357541 3.847994
C -3.974002 -1.628728 4.848587
C -3.326401 -1.828016 6.082953
C -4.082834 -1.973327 7.232151
C -3.476831 -2.051607 8.490488
C -2.114535 -1.952380 8.625072
C -1.304088 -1.815301 7.483384
C 0.100579 -1.678065 7.553411
C 0.831493 -1.577796 6.405824
N 0.257659 -1.652701 5.179920
C -1.053607 -1.745510 5.073257
C -1.902745 -1.793840 6.189951
H -5.158886 -2.010784 7.156821
H -4.098949 -2.167899 9.364821
H -1.652971 -1.975653 9.599733
H 0.581630 -1.649450 8.518141
H 1.909567 -1.433428 6.424487
H -1.471333 -1.799689 4.070700
C -5.314440 -0.943708 2.704482
C -6.704195 -0.798713 2.765877
C -7.390620 -0.314413 1.667575
C -6.715877 0.033995 0.509668
C -5.328487 -0.111138 0.431020
C -4.637260 -0.612227 1.532720
H -7.231667 -1.056881 3.671303
H -8.462356 -0.196462 1.717781
H -7.268915 0.450803 -0.316972
H -3.572170 -0.773127 1.485671
C -4.595257 0.271024 -0.779547
C -5.147188 0.139569 -2.058020
C -4.392603 0.469093 -3.165266
N -3.132055 0.899679 -3.061833
C -2.594173 1.068222 -1.847303
C -3.291816 0.779558 -0.696332
H -6.146753 -0.241557 -2.189503
H -4.791639 0.383886 -4.171885
H -1.572862 1.446267 -1.828629
H -2.842772 0.958559 0.267001
