336
cid:64, pot: -292.2464370822022
C -0.845369 0.526249 3.955688
C -2.265748 0.446457 4.265827
C -0.276067 1.743907 3.602681
C 1.090629 1.840607 3.341078
H -0.873333 2.640434 3.537263
C 1.882840 0.701987 3.426457
C 1.325567 -0.527090 3.779618
H 2.944322 0.745805 3.236235
C -0.037652 -0.608090 4.037383
C 2.164901 -1.709957 3.907873
H -0.497178 -1.543175 4.319087
C 1.691066 3.125471 3.011154
H 1.630591 -2.663777 4.039300
H -2.857896 1.344724 4.031569
H 2.737960 3.091349 2.671736
C -3.996896 -1.932593 0.707593
C -4.088952 -2.206870 2.134580
C -3.507358 -2.903400 -0.158094
C -3.450593 -2.668007 -1.531801
H -3.175137 -3.862010 0.210009
C -3.879833 -1.444298 -2.031495
C -4.373606 -0.460248 -1.174895
H -3.854413 -1.234308 -3.089779
C -4.424356 -0.709150 0.191470
C -4.859990 0.805246 -1.706032
H -4.807000 0.029648 0.878950
C -2.975341 -3.702339 -2.439708
H -5.086993 1.582116 -0.959489
H -3.592269 -3.127906 2.477278
H -2.816132 -3.387473 -3.482702
C 3.322722 -2.668157 -0.457845
C 4.180312 -2.437952 0.696055
C 3.497863 -1.920090 -1.615964
C 2.709271 -2.157163 -2.741786
H 4.254067 -1.152321 -1.674557
C 1.733881 -3.145942 -2.694315
C 1.546397 -3.904813 -1.538950
H 1.112207 -3.357527 -3.550740
C 2.339780 -3.657378 -0.424956
C 0.550936 -4.967031 -1.505933
H 2.223098 -4.231864 0.481294
C 2.923119 -1.399192 -3.966524
H 0.358809 -5.412392 -0.517530
H 4.821627 -1.544375 0.644332
H 2.164805 -1.536332 -4.752977
C 0.079179 3.992482 -1.227321
C -0.006567 4.805210 -0.022220
C -1.074574 3.661921 -1.927967
C -1.002837 2.917074 -3.105168
H -2.046000 3.984748 -1.586226
C 0.237107 2.496105 -3.570417
C 1.403864 2.820091 -2.877792
H 0.325994 1.923910 -4.481194
C 1.316906 3.562920 -1.706416
C 2.704464 2.411830 -3.389688
H 2.201801 3.834921 -1.151702
C -2.209975 2.607484 -3.858277
H 3.557109 2.570269 -2.711177
H -1.021515 4.971017 0.371317
H -2.087837 1.890448 -4.684835
C -4.169382 -0.610947 5.105071
C -4.809522 -1.766705 4.309733
N -2.774614 -0.577675 4.796063
N -4.723574 -1.451157 2.918698
C -6.285182 -1.906637 4.693122
H -4.265619 -2.696593 4.556577
C -6.441200 -2.145735 6.189910
H -6.718661 -2.733814 4.126915
H -6.804610 -0.992340 4.400966
C -5.806151 -1.005055 6.977866
H -5.956942 -3.086986 6.460270
H -7.500915 -2.229389 6.439138
C -4.335503 -0.859263 6.606769
H -5.896593 -1.193614 8.049519
H -6.331683 -0.073609 6.754899
H -3.788812 -1.767007 6.867684
H -3.884518 -0.027761 7.152556
H -4.678591 0.327104 4.818679
C 4.213802 -2.818343 4.047516
C 5.077518 -2.981155 2.780312
N 3.423247 -1.637446 3.897983
N 4.205420 -3.230286 1.676091
C 6.019685 -4.176907 2.943858
H 5.663909 -2.054640 2.642668
C 6.908072 -4.009634 4.170403
H 6.627840 -4.271144 2.041604
H 5.415273 -5.080952 3.036147
C 6.055471 -3.845636 5.424050
H 7.540490 -3.127833 4.043928
H 7.560532 -4.879302 4.271679
C 5.116115 -2.655431 5.273719
H 6.695548 -3.699345 6.296413
H 5.469546 -4.753361 5.585448
H 5.689823 -1.734199 5.158390
H 4.487936 -2.550125 6.160884
H 3.588585 -3.723160 4.156193
C 1.686848 5.451586 2.822338
C 0.888056 6.120023 1.685171
N 1.057299 4.207780 3.136336
N 1.015961 5.309518 0.515305
C 1.465802 7.506762 1.389730
H -0.163923 6.211121 2.011480
C 1.446256 8.384237 2.635281
H 0.883062 7.967060 0.589000
H 2.489151 7.383701 1.030957
C 2.233503 7.723289 3.761691
H 0.413168 8.537379 2.956036
H 1.873943 9.361342 2.401857
C 1.664310 6.343288 4.066768
H 2.194409 8.342569 4.660067
H 3.280405 7.627490 3.464683
H 0.631771 6.428505 4.410044
H 2.241257 5.858353 4.857265
H 2.727131 5.312306 2.476196
C -2.340514 -5.881801 -2.981210
C -0.986631 -6.426204 -2.482443
N -2.787876 -4.888480 -2.056644
N -0.029527 -5.367245 -2.550773
C -0.521583 -7.570382 -3.387310
H -1.123258 -6.793540 -1.449177
C -1.556268 -8.688065 -3.431545
H 0.432851 -7.948000 -3.014134
H -0.354935 -7.170591 -4.389085
C -2.896489 -8.150669 -3.921902
H -1.678759 -9.110065 -2.431399
H -1.207264 -9.484499 -4.091964
C -3.371012 -7.013469 -3.025626
H -3.641562 -8.948740 -3.926577
H -2.788204 -7.785783 -4.945975
H -3.528257 -7.375512 -2.008168
H -4.319264 -6.611288 -3.388626
H -2.192074 -5.466361 -3.994442
C -5.533826 2.233636 -3.424381
C -4.475400 2.838612 -4.368925
N -5.035861 0.984486 -2.941256
N -3.315983 3.151603 -3.594807
C -5.013562 4.128562 -4.994205
H -4.256784 2.098278 -5.159770
C -6.310658 3.870116 -5.750777
H -4.254769 4.537041 -5.665135
H -5.180390 4.853943 -4.196012
C -7.357337 3.269290 -4.818627
H -6.119540 3.179084 -6.575004
H -6.679663 4.805854 -6.175568
C -6.833588 1.982179 -4.193650
H -8.276015 3.061127 -5.370745
H -7.594611 3.986480 -4.029430
H -6.636263 1.239475 -4.968635
H -7.572387 1.562439 -3.507589
H -5.713491 2.951962 -2.604012
C 4.117677 0.055849 -5.345763
C 4.138912 1.563873 -5.023722
N 3.930103 -0.657198 -4.121859
N 2.843497 1.934881 -4.548090
C 4.445216 2.362166 -6.293846
H 4.923898 1.742834 -4.266663
C 5.774617 1.933185 -6.902303
H 4.464475 3.425311 -6.044683
H 3.634412 2.199636 -7.006030
C 5.756212 0.441635 -7.218793
H 6.582264 2.144447 -6.197501
H 5.963581 2.507230 -7.811652
C 5.456039 -0.363148 -5.960212
H 6.719662 0.133367 -7.629675
H 4.989909 0.239888 -7.970840
H 6.239614 -0.207056 -5.216712
H 5.418995 -1.430389 -6.189053
H 3.297873 -0.131162 -6.062860
C -0.478983 -2.301437 -3.891129
C -0.326022 -3.732843 -3.672697
C 0.621272 -1.528026 -4.241380
C 0.480298 -0.162956 -4.491015
H 1.602088 -1.966994 -4.341364
C -0.773866 0.424604 -4.376782
C -1.887445 -0.338899 -4.026033
H -0.916258 1.476901 -4.569732
C -1.731649 -1.697821 -3.780244
C -3.207100 0.271321 -3.946689
H -2.574966 -2.316367 -3.513251
C 1.627492 0.636565 -4.897349
H -4.001230 -0.360067 -3.518655
H 0.710300 -4.102227 -3.629159
H 1.465728 1.725287 -4.926575
C -0.946536 -4.183904 0.880275
C -1.642487 -4.841455 -0.216619
C -1.666708 -3.493952 1.848171
C -1.015543 -2.892879 2.925453
H -2.742137 -3.420379 1.795851
C 0.368209 -2.980089 3.019710
C 1.104442 -3.669209 2.055857
H 0.900273 -2.531172 3.844386
C 0.442029 -4.263169 0.988249
C 2.550047 -3.792871 2.179406
H 0.983058 -4.808499 0.230165
C -1.776878 -2.205867 3.959079
H 3.070840 -4.214265 1.305500
H -2.713094 -4.603504 -0.314341
H -1.184523 -1.629993 4.686949
C -2.927327 2.918283 -0.173998
C -3.290580 3.285553 -1.535265
C -1.903836 3.593895 0.480041
C -1.571954 3.278603 1.797617
H -1.355226 4.383620 -0.009895
C -2.269079 2.270852 2.453140
C -3.298672 1.583968 1.809718
H -2.040221 2.008050 3.474583
C -3.618301 1.909170 0.496762
C -4.053738 0.556402 2.512720
H -4.413869 1.400259 -0.025725
C -0.526616 4.016223 2.492891
H -4.740336 -0.041111 1.893310
H -2.602283 3.979020 -2.043155
H -0.220833 3.608096 3.468747
C 4.177249 0.862510 -1.055254
C 4.548661 0.398481 -2.384483
C 4.368761 0.039876 0.048367
C 4.053742 0.486768 1.331633
H 4.777077 -0.953119 -0.060767
C 3.533923 1.764566 1.499568
C 3.335914 2.601559 0.401205
H 3.286195 2.141346 2.480030
C 3.654571 2.142761 -0.871329
C 2.829073 3.954190 0.584981
H 3.518928 2.768781 -1.739932
C 4.293924 -0.362813 2.489539
H 2.556243 4.492356 -0.336106
H 4.806084 -0.669212 -2.463391
H 3.878226 -0.001458 3.442905
C -1.130565 -5.903437 -3.376931
C -1.782968 -6.295836 -2.035788
N -1.320699 -4.500406 -3.570034
N -1.059435 -5.653752 -0.984021
C -1.696260 -7.811783 -1.839610
H -2.841300 -5.978587 -2.062343
C -2.368043 -8.551546 -2.989927
H -2.169798 -8.071093 -0.890274
H -0.643051 -8.090627 -1.775609
C -1.725940 -8.162435 -4.317157
H -3.430773 -8.299208 -3.013285
H -2.281894 -9.628620 -2.833014
C -1.810092 -6.655242 -4.524677
H -2.227786 -8.674206 -5.140822
H -0.678198 -8.471806 -4.317711
H -2.853388 -6.338762 -4.573000
H -1.329975 -6.371619 -5.463674
H -0.059853 -6.172870 -3.330402
C -4.740926 1.995495 -4.293994
C -4.675573 3.259488 -3.412848
N -3.427393 1.438062 -4.369766
N -4.342600 2.858038 -2.082461
C -6.042288 3.949431 -3.391930
H -3.916473 3.938521 -3.841594
C -6.493984 4.311215 -4.801449
H -5.974254 4.845201 -2.770825
H -6.761774 3.273377 -2.926907
C -6.556410 3.062742 -5.674842
H -5.790143 5.024017 -5.237296
H -7.474694 4.789661 -4.760465
C -5.199783 2.369779 -5.705898
H -6.854532 3.330189 -6.690602
H -7.306199 2.376788 -5.274046
H -4.449856 3.028110 -6.147867
H -5.248001 1.462484 -6.311892
H -5.461719 1.293959 -3.836124
C 3.822481 0.924821 -5.635993
C 4.990451 0.690023 -4.656933
N 2.724841 0.108537 -5.222540
N 4.599857 1.179490 -3.372493
C 6.224987 1.465094 -5.125332
H 5.209901 -0.392971 -4.636959
C 6.627279 1.052495 -6.535827
H 7.042599 1.280169 -4.425389
H 5.993460 2.531231 -5.095606
C 5.472318 1.281498 -7.504873
H 6.901046 -0.005163 -6.541211
H 7.500642 1.627230 -6.850631
C 4.238851 0.511231 -7.050149
H 5.755728 0.959641 -8.508919
H 5.240186 2.348162 -7.546679
H 4.442906 -0.560952 -7.048738
H 3.403262 0.692408 -7.729807
H 3.567965 2.000100 -5.616359
C -3.744391 -1.620917 5.069548
C -4.718282 -0.619688 4.415959
N -3.032537 -2.292572 4.028524
N -3.945802 0.385877 3.756995
C -5.578975 0.046389 5.492793
H -5.360773 -1.176050 3.709574
C -6.350600 -0.992813 6.296740
H -6.266868 0.744551 5.011020
H -4.923888 0.621331 6.149649
C -5.389070 -1.985384 6.941471
H -7.035714 -1.528672 5.635710
H -6.945588 -0.494219 7.064647
C -4.529808 -2.657561 5.877647
H -5.947445 -2.743529 7.494171
H -4.745272 -1.458823 7.649844
H -5.157622 -3.226322 5.189607
H -3.824106 -3.351595 6.339227
H -3.067020 -1.056833 5.736069
C 4.575635 -3.618245 3.325446
C 5.194587 -2.226549 3.567341
N 3.158119 -3.463939 3.233428
N 4.961635 -1.428557 2.405243
C 6.705200 -2.359404 3.779347
H 4.723710 -1.792425 4.467931
C 7.014211 -3.285452 4.949162
H 7.123802 -1.366452 3.957110
H 7.148071 -2.750178 2.861495
C 6.400402 -4.661207 4.712643
H 6.605768 -2.859129 5.868321
H 8.095730 -3.373211 5.071199
C 4.895811 -4.541204 4.504465
H 6.601450 -5.313247 5.565076
H 6.854897 -5.114025 3.828468
H 4.422389 -4.132973 5.399180
H 4.457264 -5.522682 4.311566
H 5.007760 -4.029963 2.395428
C 0.982117 5.779946 2.736643
C 2.254461 5.818423 1.866115
N -0.027820 5.071020 2.016159
N 2.737887 4.480976 1.726471
C 3.330334 6.662223 2.555321
H 1.990525 6.266302 0.890892
C 2.829242 8.076332 2.821395
H 4.219070 6.684792 1.921130
H 3.600600 6.174961 3.493687
C 1.569466 8.039851 3.679775
H 2.606759 8.568114 1.871475
H 3.608824 8.652824 3.323564
C 0.490122 7.205543 3.001105
H 1.198995 9.053432 3.845525
H 1.806643 7.605092 4.653546
H 0.209922 7.655133 2.046842
H -0.404960 7.158434 3.625018
H 1.233672 5.284001 3.691614
