372
cid:43, pot: -244.7211497310923
Pd 0.121205 6.842830 -0.025055
Pd -0.381599 -7.009269 -0.828131
C 5.216899 -1.815931 0.238467
C 5.173729 -3.024586 0.205445
C 5.074157 -4.428309 0.216251
C 6.118869 -5.216888 0.666827
C 5.995062 -6.609339 0.732339
C 4.827193 -7.232743 0.373895
C 3.739783 -6.465365 -0.095189
C 2.498633 -7.038234 -0.432902
N 1.483377 -6.324349 -0.871069
C 1.621676 -4.986799 -1.054385
C 2.773856 -4.329998 -0.730301
C 3.865318 -5.051191 -0.205421
H 7.040409 -4.748394 0.977635
H 6.832448 -7.191934 1.084333
H 4.729453 -8.304142 0.446366
H 2.343170 -8.109221 -0.329275
H 0.755430 -4.478344 -1.473373
H 2.865154 -3.264064 -0.863099
C 5.245160 -0.409110 0.282800
C 6.402995 0.264326 0.689050
C 6.423587 1.640846 0.734665
C 5.285590 2.374845 0.378137
C 4.126656 1.700463 -0.023334
C 4.107036 0.325066 -0.072543
H 7.281215 -0.301419 0.962309
H 7.317824 2.161277 1.043617
H 3.255665 2.269318 -0.306228
H 3.217791 -0.196860 -0.388543
C 5.324884 3.781706 0.396188
C 5.364223 4.991454 0.383208
C 5.494647 6.389095 0.297605
C 6.752714 6.965108 0.334294
C 6.919692 8.344081 0.176068
C 5.841607 9.166641 -0.039509
C 4.543122 8.627695 -0.073815
C 3.392217 9.414316 -0.306990
C 2.158845 8.830852 -0.306558
N 1.988087 7.508816 -0.057530
C 3.038724 6.737200 0.140146
C 4.353247 7.228681 0.121827
H 7.618388 6.336019 0.475179
H 7.915802 8.758300 0.210479
H 5.976304 10.227025 -0.184463
H 3.501745 10.471940 -0.486078
H 1.254831 9.403609 -0.505660
H 2.855294 5.682385 0.332660
C 0.605880 -1.927195 4.892469
C 0.615664 -3.134472 4.815054
C 0.673173 -4.534273 4.675163
C 1.165948 -5.336354 5.689581
C 1.279750 -6.721499 5.522749
C 0.925186 -7.322557 4.342392
C 0.409292 -6.541098 3.286427
C 0.066099 -7.089899 2.036087
N -0.420884 -6.363992 1.051702
C -0.650604 -5.039256 1.233736
C -0.324130 -4.403835 2.397429
C 0.251872 -5.135947 3.455479
H 1.475143 -4.884215 6.619722
H 1.666172 -7.315156 6.336783
H 1.034785 -8.387225 4.211193
H 0.205862 -8.151702 1.847415
H -1.112952 -4.522055 0.395857
H -0.497583 -3.347080 2.522578
C 0.585238 -0.520385 4.953239
C 0.552564 0.138652 6.187264
C 0.509426 1.514589 6.235415
C 0.503759 2.262250 5.051059
C 0.558027 1.602301 3.818055
C 0.594506 0.227171 3.769329
H 0.551925 -0.437451 7.100599
H 0.474109 2.023974 7.186875
H 0.567122 2.180285 2.908158
H 0.632826 -0.285912 2.821544
C 0.408566 3.665088 5.115866
C 0.283104 4.867359 5.180683
C 0.065598 6.247680 5.338391
C -0.052480 6.781211 6.610407
C -0.335624 8.136826 6.801366
C -0.524155 8.977081 5.731858
C -0.407782 8.481579 4.420923
C -0.607707 9.287181 3.276973
C -0.464875 8.747098 2.032223
N -0.105908 7.452925 1.846277
C 0.069311 6.663849 2.887834
C -0.086209 7.108908 4.209764
H 0.067682 6.136180 7.467328
H -0.418765 8.517616 7.807810
H -0.763233 10.018007 5.882812
H -0.875673 10.324258 3.400661
H -0.633609 9.333438 1.130787
H 0.353237 5.632091 2.691103
C -5.444975 1.672796 -1.373699
C -5.391486 2.881335 -1.356626
C -5.277278 4.284337 -1.380562
C -6.284085 5.076644 -1.903756
C -6.140117 6.466712 -1.982929
C -4.989357 7.083016 -1.563034
C -3.942530 6.311727 -1.014278
C -2.720522 6.877303 -0.603184
N -1.745027 6.160749 -0.085520
C -1.910657 4.828297 0.109665
C -3.045173 4.177416 -0.282355
C -4.090357 4.900655 -0.892060
H -7.189929 4.613186 -2.263986
H -6.947529 7.052417 -2.394664
H -4.874705 8.152049 -1.645800
H -2.547036 7.945135 -0.713519
H -1.084535 4.318108 0.600003
H -3.156822 3.115149 -0.135389
C -5.478495 0.264917 -1.383065
C -4.280695 -0.459547 -1.353317
C -4.303645 -1.835849 -1.345273
C -5.524488 -2.520117 -1.359025
C -6.722039 -1.795163 -1.403925
C -6.699372 -0.417903 -1.418702
H -3.342576 0.072060 -1.339259
H -3.382986 -2.396050 -1.324468
H -7.663766 -2.323065 -1.421368
H -7.623219 0.140535 -1.448211
C -5.565574 -3.925521 -1.293637
C -5.612433 -5.131054 -1.194127
C -5.752622 -6.518257 -1.010455
C -7.017771 -7.078105 -0.961543
C -7.194495 -8.442402 -0.713191
C -6.118146 -9.265672 -0.491064
C -4.813431 -8.743051 -0.537192
C -3.664027 -9.530507 -0.299670
C -2.425053 -8.964082 -0.374467
N -2.248723 -7.659808 -0.699874
C -3.296676 -6.887391 -0.908446
C -4.615194 -7.360599 -0.822799
H -7.880971 -6.447284 -1.109220
H -8.195893 -8.843979 -0.683987
H -6.259255 -10.313739 -0.278927
H -3.779173 -10.574963 -0.057359
H -1.520769 -9.536395 -0.175226
H -3.107772 -5.846750 -1.163423
C -0.579528 1.744005 -5.765504
C -0.572903 2.952030 -5.698370
C -0.616895 4.353040 -5.572439
C -1.034593 5.153603 -6.621712
C -1.134226 6.541702 -6.474155
C -0.843133 7.148260 -5.279041
C -0.409358 6.368331 -4.185948
C -0.141361 6.922399 -2.919553
N 0.263994 6.196794 -1.898954
C 0.481049 4.866192 -2.054346
C 0.224169 4.226658 -3.232876
C -0.264380 4.959459 -4.333543
H -1.292782 4.697876 -7.565560
H -1.458908 7.134148 -7.315693
H -0.942002 8.215826 -5.164148
H -0.274234 7.987784 -2.748390
H 0.869915 4.348712 -1.179477
H 0.383036 3.165634 -3.338556
C -0.595032 0.337470 -5.822253
C -0.274904 -0.412226 -4.683807
C -0.296448 -1.787600 -4.731443
C -0.634547 -2.446376 -5.919206
C -0.955761 -1.696949 -7.057634
C -0.937799 -0.320564 -7.009222
H -0.007639 0.097893 -3.771963
H -0.040246 -2.368115 -3.859856
H -1.215662 -2.205402 -7.974129
H -1.183920 0.257202 -7.887550
C -0.623609 -3.852387 -5.985880
C -0.585686 -5.060633 -6.047749
C -0.467429 -6.453606 -6.200923
C -0.436031 -7.004752 -7.470196
C -0.244165 -8.377018 -7.656232
C -0.061983 -9.216959 -6.585395
C -0.096712 -8.703566 -5.276648
C 0.099164 -9.508751 -4.131637
C 0.031824 -8.950277 -2.888580
N -0.250121 -7.636645 -2.703952
C -0.414769 -6.847930 -3.747549
C -0.327541 -7.312447 -5.069083
H -0.549563 -6.361130 -8.329082
H -0.225492 -8.771613 -8.660743
H 0.109106 -10.271612 -6.733796
H 0.303320 -10.560565 -4.253131
H 0.200708 -9.537294 -1.987644
H -0.635540 -5.800640 -3.552846
Pd 1.572100 -6.755693 0.202713
Pd -1.491414 6.703818 -1.291990
C 0.091277 2.111423 4.696058
C -0.139593 3.292129 4.568121
C -0.356479 4.668822 4.372638
C -0.105641 5.583534 5.380963
C -0.265350 6.957010 5.164741
C -0.652849 7.439461 3.940782
C -0.922829 6.539913 2.887561
C -1.277294 6.971775 1.595058
N -1.529915 6.134377 0.611539
C -1.496232 4.795846 0.832745
C -1.135995 4.273745 2.041723
C -0.803639 5.137588 3.104850
H 0.223772 5.230668 6.346494
H -0.065158 7.639952 5.975929
H -0.753864 8.499806 3.773006
H -1.344098 8.033588 1.371293
H -1.772981 4.172799 -0.015535
H -1.094907 3.208204 2.199801
C 0.367107 0.736771 4.823345
C 0.810619 0.212577 6.043058
C 1.083133 -1.132425 6.160677
C 0.921374 -1.983091 5.060162
C 0.482565 -1.457222 3.839523
C 0.206558 -0.113843 3.722774
H 0.933719 0.868091 6.892310
H 1.420935 -1.538436 7.102492
H 0.350074 -2.116934 2.997225
H -0.138728 0.292740 2.785491
C 1.170709 -3.361554 5.197183
C 1.356740 -4.551452 5.319166
C 1.497119 -5.932970 5.541372
C 1.554678 -6.418000 6.836462
C 1.618361 -7.791299 7.090313
C 1.606585 -8.701576 6.062387
C 1.559848 -8.255016 4.729689
C 1.528989 -9.137230 3.625874
C 1.505233 -8.637051 2.356662
N 1.540674 -7.304604 2.107341
C 1.544980 -6.449141 3.110569
C 1.531017 -6.857018 4.453441
H 1.537687 -5.723441 7.662476
H 1.662297 -8.133294 8.113111
H 1.632143 -9.761229 6.262739
H 1.522045 -10.201431 3.799316
H 1.457878 -9.288380 1.485761
H 1.569926 -5.389806 2.864324
C 4.925992 2.734691 0.317595
C 4.648509 3.909749 0.240383
C 4.274755 5.266387 0.194449
C 5.110815 6.257072 0.678982
C 4.709646 7.598069 0.688856
C 3.468726 7.967713 0.237317
C 2.589763 6.988967 -0.273671
C 1.288051 7.296030 -0.713641
N 0.468481 6.385802 -1.196211
C 0.881423 5.099742 -1.325026
C 2.113303 4.691802 -0.899910
C 2.998980 5.626008 -0.325524
H 6.083272 5.988643 1.063004
H 5.389392 8.343255 1.072141
H 3.156191 8.999289 0.266814
H 0.917505 8.316811 -0.656658
H 0.170003 4.421133 -1.790387
H 2.422399 3.663123 -0.993870
C 5.220867 1.359945 0.396944
C 6.547021 0.919188 0.469192
C 6.825681 -0.428746 0.523387
C 5.784555 -1.365468 0.512311
C 4.457961 -0.922304 0.461566
C 4.179295 0.424233 0.400764
H 7.350334 1.640779 0.472776
H 7.849002 -0.770411 0.569090
H 3.657858 -1.644797 0.466702
H 3.158745 0.770339 0.357972
C 6.087175 -2.740158 0.517292
C 6.358284 -3.919330 0.478286
C 6.755783 -5.263362 0.364304
C 8.103489 -5.579377 0.344624
C 8.533587 -6.897403 0.165136
C 7.631661 -7.916711 -0.016250
C 6.252003 -7.644835 0.002478
C 5.271660 -8.643410 -0.196233
C 3.948283 -8.314887 -0.151025
N 3.528939 -7.051829 0.108498
C 4.412657 -6.088404 0.278802
C 5.796934 -6.311183 0.218112
H 8.832699 -4.792218 0.461116
H 9.592396 -7.106136 0.156960
H 7.967365 -8.929374 -0.175452
H 5.581647 -9.658557 -0.385796
H 3.168400 -9.054681 -0.322104
H 4.030718 -5.089935 0.481122
C -0.286323 -2.232213 -5.765098
C -0.071713 -3.414926 -5.627650
C 0.131156 -4.792231 -5.418270
C -0.192622 -5.720674 -6.392054
C -0.047992 -7.092913 -6.156566
C 0.399836 -7.559032 -4.947188
C 0.749963 -6.644419 -3.930844
C 1.176543 -7.057888 -2.654389
N 1.509385 -6.206763 -1.706847
C 1.489781 -4.872830 -1.954367
C 1.062612 -4.367093 -3.148604
C 0.644459 -5.244565 -4.169554
H -0.570795 -5.380165 -7.343976
H -0.308251 -7.787219 -6.940546
H 0.489303 -8.617683 -4.763218
H 1.235235 -8.116609 -2.413202
H 1.838833 -4.238348 -1.142756
H 1.037328 -3.303943 -3.326024
C -0.527620 -0.850950 -5.896017
C -0.689427 -0.061509 -4.750974
C -0.908960 1.292298 -4.868346
C -0.964157 1.889973 -6.132705
C -0.817174 1.097465 -7.278195
C -0.604058 -0.258380 -7.161360
H -0.642572 -0.525930 -3.778847
H -1.035891 1.901999 -3.988567
H -0.866556 1.557464 -8.253825
H -0.485836 -0.868062 -8.044859
C -1.130992 3.281034 -6.267397
C -1.230712 4.481003 -6.392420
C -1.272225 5.868299 -6.618917
C -1.242482 6.351547 -7.915834
C -1.214451 7.725207 -8.174048
C -1.196150 8.637080 -7.147583
C -1.231746 8.193327 -5.813676
C -1.196652 9.077090 -4.711205
C -1.249283 8.581313 -3.441164
N -1.363109 7.253647 -3.191187
C -1.378171 6.395803 -4.192210
C -1.294680 6.796847 -5.534564
H -1.232049 5.654312 -8.739591
H -1.193308 8.065217 -9.198182
H -1.153209 9.695648 -7.350245
H -1.124974 10.138694 -4.886296
H -1.201643 9.232305 -2.569953
H -1.467302 5.340139 -3.944493
C -4.884535 -2.756373 -1.123252
C -4.618024 -3.932876 -1.030132
C -4.258574 -5.292258 -0.971316
C -5.133677 -6.282852 -1.382821
C -4.751782 -7.629234 -1.379299
C -3.491843 -8.005626 -0.989922
C -2.571076 -7.026893 -0.558865
C -1.248324 -7.341002 -0.192693
N -0.388261 -6.429724 0.210301
C -0.775173 -5.134239 0.327374
C -2.026358 -4.720509 -0.029388
C -2.959109 -5.657408 -0.518636
H -6.123249 -6.010180 -1.716925
H -5.462520 -8.374236 -1.702472
H -3.195395 -9.042200 -1.009308
H -0.894807 -8.367847 -0.243403
H -0.022975 -4.453428 0.721276
H -2.316212 -3.685238 0.050676
C -5.173337 -1.383373 -1.238407
C -4.196264 -0.433534 -0.916331
C -4.470513 0.910027 -1.034916
C -5.729271 1.336177 -1.474384
C -6.706228 0.386526 -1.797557
C -6.430872 -0.958072 -1.682435
H -3.229699 -0.764515 -0.570973
H -3.724224 1.644258 -0.777714
H -7.677579 0.715651 -2.135688
H -7.184860 -1.690216 -1.930107
C -6.029257 2.708623 -1.563630
C -6.293255 3.888866 -1.612121
C -6.682531 5.240192 -1.597691
C -8.025391 5.568762 -1.665468
C -8.447994 6.898563 -1.577845
C -7.544282 7.917470 -1.402699
C -6.168659 7.632472 -1.338945
C -5.187058 8.630605 -1.144192
C -3.866626 8.288188 -1.112984
N -3.449952 7.010453 -1.294481
C -4.336295 6.047590 -1.454373
C -5.719460 6.285424 -1.463059
H -8.757114 4.783159 -1.775544
H -9.503430 7.117376 -1.634769
H -7.875837 8.939957 -1.312071
H -5.493505 9.656832 -1.019120
H -3.087375 9.028560 -0.941826
H -3.957543 5.037261 -1.592790
