308
cid:69, pot: -183.53557230896268
Pd -0.864459 4.527591 0.676559
Pd 0.678929 -4.571728 -0.543262
C 5.874407 -1.407890 -1.159865
C 5.865502 -2.602157 -1.353229
C 5.927242 -3.961339 -1.716405
C 7.130539 -4.496673 -2.139918
C 7.207931 -5.807297 -2.622586
C 6.084775 -6.590105 -2.721826
C 4.841366 -6.091909 -2.291998
C 3.643099 -6.834183 -2.393496
C 2.474568 -6.304053 -1.930404
N 2.425780 -5.091935 -1.324964
C 3.515737 -4.354036 -1.243633
C 4.756971 -4.779189 -1.742764
H 8.020630 -3.886982 -2.111875
H 8.164565 -6.192233 -2.941556
H 6.141207 -7.587380 -3.129086
H 3.664933 -7.814493 -2.841960
H 1.528429 -6.832736 -2.026275
H 3.429365 -3.387114 -0.753882
C 5.859780 -0.002526 -1.029075
C 7.039204 0.728448 -1.204927
C 7.001778 2.109802 -1.155123
C 5.808121 2.777220 -0.938357
C 4.622710 2.060734 -0.755271
C 4.661495 0.667956 -0.792210
H 7.969126 0.211889 -1.386484
H 7.911289 2.673539 -1.297481
H 5.798336 3.855679 -0.947227
H 3.769330 0.089208 -0.614950
C 3.346397 2.749421 -0.541697
C 3.260549 3.963315 0.147729
C 2.025533 4.537761 0.368771
N 0.892001 3.962455 -0.042839
C 0.951784 2.820818 -0.739795
C 2.148182 2.199014 -1.016769
H 4.146491 4.441387 0.532692
H 1.923061 5.481521 0.896444
H -0.003536 2.417027 -1.071962
H 2.165541 1.299181 -1.610084
C 2.296272 -2.878866 5.085896
C 2.369582 -4.043024 4.764940
C 2.370264 -5.429576 4.519249
C 2.763914 -6.297698 5.521827
C 2.663133 -7.683378 5.357989
C 2.138608 -8.221900 4.209545
C 1.735822 -7.378157 3.158323
C 1.161377 -7.865303 1.962650
C 0.819107 -6.994592 0.969552
N 1.055423 -5.663433 1.068547
C 1.557489 -5.166639 2.182293
C 1.887700 -5.966737 3.287225
H 3.139758 -5.898160 6.451238
H 2.982808 -8.330082 6.160774
H 2.027617 -9.289408 4.101113
H 0.994883 -8.924531 1.849323
H 0.340876 -7.331579 0.052409
H 1.727704 -4.093005 2.218740
C 2.115212 -1.538001 5.488259
C 2.424133 -1.153814 6.797144
C 2.167027 0.140925 7.208799
C 1.601593 1.059398 6.340530
C 1.293342 0.692468 5.028039
C 1.564753 -0.608601 4.608081
H 2.852763 -1.870848 7.480330
H 2.399440 0.435019 8.221018
H 1.370236 2.049875 6.699190
H 1.375084 -0.907300 3.589631
C 0.677069 1.646036 4.100716
C 0.957649 3.015584 4.144708
C 0.387054 3.860291 3.214658
N -0.421743 3.410996 2.250727
C -0.734303 2.109633 2.210545
C -0.220065 1.209692 3.116251
H 1.635898 3.415202 4.880740
H 0.579335 4.929197 3.223202
H -1.418656 1.810158 1.418006
H -0.518467 0.174624 3.078203
C -6.060336 1.363633 1.288099
C -6.049643 2.556796 1.487735
C -6.109898 3.914085 1.858340
C -7.311997 4.447233 2.288237
C -7.387923 5.755234 2.778392
C -6.264432 6.537361 2.878459
C -5.022350 6.041557 2.442215
C -3.823777 6.783281 2.543947
C -2.656537 6.255600 2.074651
N -2.609523 5.046538 1.462932
C -3.699785 4.309105 1.380826
C -4.939610 4.731714 1.885694
H -8.202118 3.837674 2.259601
H -8.343489 6.138404 3.102295
H -6.319533 7.532445 3.291235
H -3.844280 7.761316 2.997386
H -1.710259 6.783882 2.170511
H -3.614764 3.344763 0.885645
C -6.047465 -0.041010 1.150006
C -7.229018 -0.770963 1.314831
C -7.193534 -2.152095 1.258079
C -5.999533 -2.820350 1.045139
C -4.811972 -2.104906 0.873175
C -4.848841 -0.712232 0.916989
H -8.159277 -0.253962 1.493418
H -8.104728 -2.715152 1.391959
H -5.991571 -3.898813 1.048556
H -3.954544 -0.134089 0.748437
C -3.535421 -2.794245 0.663492
C -3.447351 -4.004526 -0.031943
C -2.211836 -4.579381 -0.249207
N -1.079701 -4.007711 0.171465
C -1.142088 -2.869921 0.874465
C -2.339117 -2.248073 1.148346
H -4.331722 -4.479422 -0.424326
H -2.107690 -5.520482 -0.781503
H -0.188127 -2.469210 1.214131
H -2.358497 -1.351730 1.746709
C -2.458468 2.839704 -4.963032
C -2.535713 4.003115 -4.640100
C -2.540577 5.389220 -4.392001
C -2.930941 6.258248 -5.395120
C -2.834180 7.643800 -5.228425
C -2.316832 8.181451 -4.076365
C -1.917528 7.336782 -3.024561
C -1.349968 7.823084 -1.825333
C -1.010360 6.951497 -0.832141
N -1.243102 5.619925 -0.934428
C -1.738826 5.123876 -2.051420
C -2.065511 5.925229 -3.156558
H -3.301143 5.859397 -6.327215
H -3.151165 8.291179 -6.031771
H -2.208831 9.248974 -3.965483
H -1.186436 8.882581 -1.709300
H -0.537180 7.288125 0.087729
H -1.906322 4.050094 -2.090703
C -2.272620 1.499861 -5.366561
C -2.569287 1.118231 -6.679000
C -2.307720 -0.175502 -7.090915
C -1.749779 -1.095593 -6.219433
C -1.453710 -0.731093 -4.903482
C -1.729794 0.568874 -4.483342
H -2.991970 1.836524 -7.364608
H -2.530732 -0.467578 -8.105852
H -1.514583 -2.085093 -6.577905
H -1.549708 0.865627 -3.462537
C -0.844707 -1.686009 -3.972728
C -1.123582 -3.055727 -4.021532
C -0.559383 -3.901683 -3.088748
N 0.241426 -3.453465 -2.117717
C 0.552062 -2.151847 -2.072238
C 0.043830 -1.250610 -2.980057
H -1.795590 -3.454549 -4.763811
H -0.750498 -4.970785 -3.100734
H 1.229536 -1.852989 -1.273481
H 0.340262 -0.215233 -2.937423
Pd 1.267883 -0.634335 4.677257
Pd -1.269975 0.830270 -4.159130
C -1.039372 6.110279 -1.084861
C -1.418978 6.093855 -2.233431
C -1.987328 6.156714 -3.520380
C -2.410707 7.376762 -4.016423
C -3.088207 7.464280 -5.237121
C -3.382731 6.337130 -5.962988
C -2.961662 5.075978 -5.503426
C -3.256965 3.874757 -6.186769
C -2.793135 2.686576 -5.703033
N -2.008398 2.617416 -4.599545
C -1.740672 3.711918 -3.914356
C -2.218741 4.976923 -4.290833
H -2.228874 8.273309 -3.443814
H -3.400864 8.433734 -5.594184
H -3.937761 6.404034 -6.885549
H -3.852142 3.910290 -7.085223
H -3.032760 1.740184 -6.183427
H -1.111116 3.608942 -3.033799
C -0.689520 6.111219 0.282696
C -0.670504 7.312526 0.998756
C -0.405837 7.295875 2.355784
C -0.164748 6.101953 3.014379
C -0.174727 4.894435 2.311617
C -0.428425 4.911363 0.941221
H -0.870347 8.243576 0.491045
H -0.397818 8.222720 2.909138
H -0.003797 6.111630 4.080826
H -0.403264 3.999161 0.367097
C 0.061274 3.618672 2.993972
C 0.926638 3.506804 4.087091
C 1.154541 2.269716 4.654300
N 0.584285 1.157314 4.182474
C -0.278694 1.244972 3.162629
C -0.571769 2.446560 2.558409
H 1.439162 4.372372 4.474076
H 1.816785 2.147673 5.506503
H -0.732097 0.307850 2.842710
H -1.297312 2.488982 1.762258
C 4.649200 2.085873 -3.413145
C 4.153990 2.160772 -4.514478
C 3.693052 2.154147 -5.844956
C 4.569449 2.462691 -6.869898
C 4.182693 2.349250 -8.209514
C 2.932010 1.895662 -8.546989
C 2.003159 1.580917 -7.538268
C 0.710624 1.081661 -7.816239
C -0.152705 0.823762 -6.791715
N 0.170369 1.075897 -5.499534
C 1.378898 1.508757 -5.197262
C 2.362805 1.748167 -6.169180
H 5.572817 2.780629 -6.631234
H 4.892492 2.601619 -8.982467
H 2.649368 1.773769 -9.580821
H 0.420902 0.904896 -8.839595
H -1.140757 0.403939 -6.967599
H 1.595401 1.694770 -4.147710
C 5.245561 1.900997 -2.147134
C 6.615924 2.125802 -1.981132
C 7.209199 1.863628 -0.759993
C 6.461818 1.375375 0.298387
C 5.090638 1.151777 0.150022
C 4.489165 1.428694 -1.076543
H 7.203875 2.493848 -2.807849
H 8.268159 2.030961 -0.634363
H 6.956547 1.137216 1.226757
H 3.426099 1.304335 -1.206869
C 4.287286 0.617487 1.253699
C 4.565114 0.918230 2.591127
C 3.744901 0.427792 3.586489
N 2.671464 -0.320509 3.316347
C 2.406069 -0.652222 2.046531
C 3.189935 -0.217280 1.001964
H 5.397645 1.551109 2.851642
H 3.934630 0.637657 4.635105
H 1.533316 -1.285552 1.893905
H 2.969525 -0.530386 -0.005610
C 1.032219 -5.914398 1.603651
C 1.417986 -5.896639 2.750133
C 1.993442 -5.958555 4.033940
C 2.422902 -7.177884 4.526858
C 3.107380 -7.264511 5.743749
C 3.402622 -6.137095 6.468795
C 2.975529 -4.876777 6.012566
C 3.270958 -3.675284 6.695351
C 2.801394 -2.487911 6.215026
N 2.010891 -2.420030 5.115608
C 1.742426 -3.514771 4.430926
C 2.225771 -4.778831 4.804100
H 2.240381 -8.074435 3.954487
H 3.424742 -8.233253 6.098164
H 3.962879 -6.203079 7.388244
H 3.870845 -3.709854 7.590671
H 3.040889 -1.541400 6.695089
H 1.107831 -3.412738 3.553943
C 0.675292 -5.916566 0.238064
C 0.645366 -7.119223 -0.475263
C 0.373738 -7.104019 -1.831049
C 0.136330 -5.910039 -2.490976
C 0.157243 -4.701159 -1.791042
C 0.417808 -4.716648 -0.421915
H 0.842374 -8.050393 0.033365
H 0.357356 -8.031950 -2.382332
H -0.030040 -5.921151 -3.556509
H 0.401372 -3.802917 0.150185
C -0.074968 -3.425428 -2.474713
C -0.945540 -3.310873 -3.563315
C -1.169835 -2.073553 -4.131644
N -0.591307 -0.963239 -3.664715
C 0.276952 -1.053966 -2.649521
C 0.566915 -2.255969 -2.044805
H -1.464814 -4.174314 -3.946046
H -1.836090 -1.949482 -4.980460
H 0.737056 -0.118786 -2.333740
H 1.296726 -2.300815 -1.252859
C -4.659224 -1.865849 3.937108
C -4.162449 -1.944820 5.037488
C -3.699481 -1.942545 6.367307
C -4.576109 -2.247764 7.393137
C -4.186757 -2.138521 8.732260
C -2.933091 -1.692353 9.068511
C -2.004107 -1.381153 8.058952
C -0.708695 -0.889016 8.335606
C 0.154446 -0.633801 7.310376
N -0.171680 -0.882149 6.018206
C -1.382845 -1.308437 5.716930
C -2.366576 -1.544304 6.690078
H -5.581611 -2.559873 7.155400
H -4.896788 -2.388155 9.505921
H -2.648223 -1.573614 10.102096
H -0.416412 -0.715394 9.359012
H 1.144824 -0.219201 7.485566
H -1.602082 -1.491563 4.667668
C -5.256219 -1.676096 2.672184
C -6.628985 -1.888404 2.508937
C -7.222064 -1.621736 1.288634
C -6.472215 -1.141199 0.228339
C -5.098813 -0.930045 0.374221
C -4.497560 -1.211638 1.599712
H -7.218723 -2.250329 3.337124
H -8.282691 -1.779461 1.165162
H -6.966281 -0.899203 -0.699158
H -3.433178 -1.097048 1.728081
C -4.292752 -0.403259 -0.731178
C -4.575269 -0.701974 -2.068099
C -3.752923 -0.218124 -3.064902
N -2.673192 0.521702 -2.796721
C -2.402664 0.851137 -1.527433
C -3.188003 0.422354 -0.481414
H -5.413439 -1.328196 -2.326926
H -3.945970 -0.426584 -4.113257
H -1.524277 1.477180 -1.376267
H -2.963243 0.733170 0.525843
