372
cid:69, pot: -254.72457677128585
Pd 0.736402 6.048979 2.139960
Pd -1.523614 -6.533873 -3.276917
C 4.748593 -2.412879 -1.508186
C 4.557501 -3.524137 -1.946807
C 4.294203 -4.829467 -2.402066
C 5.292174 -5.787856 -2.444986
C 5.014414 -7.100899 -2.841606
C 3.740887 -7.483345 -3.177607
C 2.695754 -6.535515 -3.151403
C 1.359304 -6.873986 -3.437799
N 0.383185 -5.991372 -3.414412
C 0.651426 -4.688003 -3.147860
C 1.908499 -4.261178 -2.829231
C 2.971262 -5.186278 -2.788838
H 6.298387 -5.517937 -2.162135
H 5.818886 -7.819711 -2.867426
H 3.527959 -8.501423 -3.462000
H 1.094291 -7.899443 -3.683006
H -0.200005 -4.012461 -3.204140
H 2.105633 -3.226136 -2.601173
C 4.950284 -1.120235 -0.988282
C 6.226899 -0.707769 -0.589206
C 6.417640 0.556650 -0.077175
C 5.335305 1.435966 0.050337
C 4.058196 1.020968 -0.344463
C 3.868019 -0.241172 -0.859594
H 7.061972 -1.385030 -0.689105
H 7.402950 0.877231 0.226720
H 3.229185 1.704156 -0.253668
H 2.886403 -0.560911 -1.171393
C 5.543996 2.737433 0.544057
C 5.724732 3.866463 0.941338
C 6.006672 5.191163 1.320041
C 7.316115 5.639695 1.327028
C 7.621118 6.970925 1.625830
C 6.628763 7.878528 1.903019
C 5.284387 7.466065 1.918214
C 4.213667 8.350844 2.179842
C 2.933015 7.880571 2.200091
N 2.644348 6.569975 2.005251
C 3.613195 5.717880 1.734003
C 4.959980 6.104088 1.651099
H 8.111980 4.951737 1.085562
H 8.653708 7.285154 1.621901
H 6.866081 8.910189 2.110201
H 4.420950 9.393693 2.359114
H 2.084284 8.539255 2.375369
H 3.335631 4.677216 1.581292
C 0.887167 -3.914354 3.568090
C 0.741756 -5.011528 3.079552
C 0.611166 -6.268405 2.458643
C 1.147892 -7.409120 3.029518
C 1.070394 -8.646013 2.378750
C 0.478130 -8.760721 1.147370
C -0.089827 -7.622914 0.535239
C -0.674931 -7.664487 -0.744699
N -1.210647 -6.605850 -1.315139
C -1.251958 -5.423792 -0.650411
C -0.685625 -5.269423 0.582458
C -0.052459 -6.365593 1.202740
H 1.641305 -7.340527 3.987135
H 1.498196 -9.514308 2.855669
H 0.439859 -9.711688 0.640476
H -0.691637 -8.593931 -1.308977
H -1.766911 -4.613627 -1.162036
H -0.711890 -4.319859 1.092475
C 1.043234 -2.624719 4.111888
C 1.269946 -2.452279 5.481954
C 1.398399 -1.185526 6.007522
C 1.308737 -0.063395 5.174149
C 1.103272 -0.238334 3.800847
C 0.968290 -1.503732 3.276219
H 1.334227 -3.316895 6.125679
H 1.563405 -1.050803 7.066115
H 1.048021 0.626297 3.159425
H 0.806330 -1.643398 2.219204
C 1.391705 1.225521 5.733637
C 1.421075 2.329434 6.229533
C 1.394820 3.571275 6.888782
C 1.528272 3.618251 8.265955
C 1.439475 4.829037 8.959092
C 1.198032 6.007016 8.296152
C 1.061744 6.009541 6.896496
C 0.794108 7.182664 6.155054
C 0.688171 7.118319 4.796330
N 0.859478 5.958451 4.115393
C 1.089854 4.838969 4.772563
C 1.183299 4.787841 6.171997
H 1.694740 2.702525 8.812355
H 1.550243 4.827083 10.032671
H 1.109206 6.936468 8.836246
H 0.672468 8.120043 6.673859
H 0.460510 7.998261 4.197393
H 1.217125 3.931836 4.185407
C -5.542513 2.049088 0.113496
C -5.343631 3.165355 0.535530
C -5.067966 4.473860 0.975821
C -6.038880 5.459556 0.946309
C -5.743601 6.774089 1.325910
C -4.478740 7.128863 1.719170
C -3.462284 6.151181 1.772317
C -2.134778 6.457638 2.127264
N -1.186405 5.546342 2.183347
C -1.479145 4.245082 1.934379
C -2.728095 3.847126 1.552008
C -3.757564 4.801853 1.425854
H -7.036302 5.211148 0.616829
H -6.526996 7.515476 1.292373
H -4.250988 8.147431 1.990235
H -1.853419 7.481494 2.361980
H -0.656897 3.544679 2.063005
H -2.942708 2.811618 1.341910
C -5.744384 0.743210 -0.373601
C -4.649942 -0.013389 -0.809734
C -4.835131 -1.296740 -1.271808
C -6.117551 -1.856548 -1.301563
C -7.213904 -1.094065 -0.879271
C -7.029863 0.192615 -0.423023
H -3.663306 0.420928 -0.781656
H -3.994616 -1.880671 -1.610087
H -8.204137 -1.523500 -0.908550
H -7.874991 0.778220 -0.092804
C -6.315633 -3.186526 -1.717552
C -6.490606 -4.342268 -2.032279
C -6.766561 -5.691895 -2.315251
C -8.068524 -6.155701 -2.236506
C -8.368179 -7.505061 -2.445443
C -7.376656 -8.415574 -2.716529
C -6.039861 -7.989790 -2.812595
C -4.970080 -8.876821 -3.070235
C -3.696823 -8.396035 -3.165893
N -3.415960 -7.074875 -3.048564
C -4.383669 -6.218280 -2.787562
C -5.722362 -6.611419 -2.635599
H -8.862746 -5.463837 -2.001148
H -9.395161 -7.830054 -2.377582
H -7.608986 -9.459517 -2.856401
H -5.172072 -9.929783 -3.185695
H -2.847753 -9.054372 -3.340938
H -4.111545 -5.168704 -2.698283
C -1.397668 3.403949 -4.780399
C -1.237555 4.504539 -4.304015
C -1.095587 5.766752 -3.697975
C -1.563857 6.914113 -4.314929
C -1.474910 8.159840 -3.683445
C -0.942166 8.278141 -2.425218
C -0.449249 7.133301 -1.763648
C 0.064981 7.178482 -0.453650
N 0.525860 6.111967 0.164877
C 0.557929 4.915627 -0.475048
C 0.057285 4.758623 -1.735457
C -0.496142 5.865546 -2.410427
H -2.009608 6.844073 -5.295540
H -1.846242 9.033219 -4.197176
H -0.895397 9.237026 -1.934275
H 0.086322 8.117142 0.094491
H 1.006090 4.096281 0.083720
H 0.071562 3.798956 -2.226388
C -1.588611 2.115273 -5.313931
C -1.197075 0.989053 -4.579826
C -1.388910 -0.273517 -5.093154
C -1.972957 -0.440299 -6.354166
C -2.365588 0.685730 -7.088153
C -2.177038 1.949175 -6.573120
H -0.740614 1.120709 -3.611620
H -1.079018 -1.142507 -4.535371
H -2.815300 0.556858 -8.061389
H -2.478343 2.817428 -7.139866
C -2.139321 -1.726493 -6.901395
C -2.254941 -2.831827 -7.380971
C -2.327000 -4.081182 -8.022641
C -2.547274 -4.140398 -9.387842
C -2.549381 -5.363037 -10.065844
C -2.313942 -6.540824 -9.400434
C -2.095664 -6.530752 -8.011244
C -1.831799 -7.703627 -7.267956
C -1.649781 -7.626031 -5.917968
N -1.743323 -6.452143 -5.245327
C -1.963659 -5.332894 -5.906392
C -2.126430 -5.295972 -7.299941
H -2.707686 -3.225673 -9.937723
H -2.724822 -5.370804 -11.130858
H -2.293147 -7.479937 -9.930737
H -1.774259 -8.651727 -7.778396
H -1.422126 -8.506433 -5.319750
H -2.027355 -4.414319 -5.327057
Pd 0.389935 5.985096 2.638786
Pd -1.396191 -6.653693 -2.824591
C 4.706536 -2.201471 -1.279866
C 4.559019 -3.317542 -1.722989
C 4.349622 -4.631320 -2.181985
C 5.396942 -5.531310 -2.279335
C 5.176128 -6.854201 -2.679201
C 3.912552 -7.304838 -2.964320
C 2.818065 -6.417923 -2.881681
C 1.491416 -6.828655 -3.114092
N 0.469316 -6.002897 -3.037945
C 0.675458 -4.689022 -2.767817
C 1.919386 -4.194833 -2.498729
C 3.033108 -5.058706 -2.515317
H 6.397865 -5.207665 -2.037085
H 6.017737 -7.526086 -2.748335
H 3.744787 -8.330586 -3.251341
H 1.273842 -7.865137 -3.359747
H -0.214161 -4.062280 -2.779189
H 2.067975 -3.152559 -2.267128
C 4.858017 -0.904439 -0.753829
C 6.125764 -0.424221 -0.405420
C 6.267563 0.844001 0.112877
C 5.144249 1.659482 0.297516
C 3.876358 1.176650 -0.046542
C 3.734841 -0.089251 -0.568023
H 6.992322 -1.052261 -0.549385
H 7.245710 1.216953 0.377650
H 3.015116 1.810973 0.088125
H 2.759984 -0.461076 -0.840844
C 5.301074 2.965933 0.797209
C 5.435458 4.099623 1.199741
C 5.658998 5.434489 1.581627
C 6.940262 5.956236 1.537266
C 7.182947 7.299676 1.838458
C 6.154372 8.147065 2.169124
C 4.837199 7.659151 2.237514
C 3.731041 8.479432 2.555658
C 2.480900 7.937318 2.625676
N 2.257922 6.614437 2.427943
C 3.260207 5.821087 2.104952
C 4.578275 6.283613 1.968451
H 7.762104 5.316683 1.253452
H 8.195123 7.671826 1.793626
H 6.342299 9.188554 2.378036
H 3.887172 9.530604 2.738179
H 1.605078 8.545274 2.845366
H 3.035008 4.767838 1.951980
C 1.161665 -3.966755 3.940434
C 1.056732 -5.065777 3.445603
C 0.969744 -6.322106 2.816049
C 1.594102 -7.436015 3.349537
C 1.557638 -8.669086 2.688090
C 0.919307 -8.805407 1.482124
C 0.262163 -7.695876 0.908772
C -0.375242 -7.758354 -0.345072
N -0.993982 -6.726404 -0.879228
C -1.072339 -5.554804 -0.199316
C -0.462033 -5.380384 1.009722
C 0.258178 -6.444784 1.588887
H 2.124398 -7.348631 4.285673
H 2.053952 -9.516194 3.135691
H 0.912252 -9.752196 0.966141
H -0.364536 -8.681841 -0.919182
H -1.653840 -4.770299 -0.678478
H -0.519123 -4.438648 1.531665
C 1.268851 -2.675560 4.492253
C 1.545384 -2.503560 5.853178
C 1.625511 -1.236536 6.387731
C 1.436619 -0.113534 5.572440
C 1.181275 -0.286838 4.207307
C 1.094605 -1.552789 3.674044
H 1.686217 -3.369128 6.483237
H 1.828958 -1.102740 7.439737
H 1.049550 0.579371 3.579199
H 0.894532 -1.691352 2.623372
C 1.471624 1.172725 6.143129
C 1.460762 2.271813 6.650433
C 1.393828 3.503902 7.324893
C 1.584680 3.545358 8.695449
C 1.458610 4.742578 9.406198
C 1.122654 5.911198 8.768374
C 0.925199 5.919249 7.376012
C 0.559936 7.082329 6.660794
C 0.398320 7.024952 5.307323
N 0.604388 5.883023 4.605861
C 0.925772 4.772229 5.239105
C 1.083184 4.713303 6.632405
H 1.826044 2.635353 9.223246
H 1.616262 4.736760 10.473824
H 1.005603 6.829044 9.322797
H 0.408788 8.006339 7.195500
H 0.095630 7.896168 4.729273
H 1.077845 3.879382 4.636237
C -5.737590 1.655904 0.838256
C -5.583298 2.777590 1.264604
C -5.362420 4.095370 1.708037
C -6.387429 5.024813 1.732335
C -6.149979 6.350348 2.114415
C -4.890983 6.772382 2.456804
C -3.819950 5.853174 2.454275
C -2.497428 6.230884 2.755162
N -1.497898 5.374170 2.759329
C -1.727837 4.060824 2.507781
C -2.968078 3.596586 2.175020
C -4.053993 4.492701 2.104930
H -7.382837 4.723543 1.443348
H -6.974434 7.046486 2.123592
H -4.709046 7.799487 2.729833
H -2.263905 7.266730 2.989676
H -0.862763 3.406908 2.592382
H -3.133278 2.552650 1.962150
C -5.887075 0.345392 0.344834
C -4.772091 -0.344016 -0.147152
C -4.905101 -1.631348 -0.616032
C -6.154173 -2.262475 -0.596937
C -7.271996 -1.567146 -0.118597
C -7.140565 -0.276571 0.344572
H -3.811079 0.145148 -0.156572
H -4.048791 -2.163608 -0.997203
H -8.236925 -2.051637 -0.110187
H -8.001931 0.257229 0.717886
C -6.295405 -3.597507 -1.019750
C -6.418925 -4.758299 -1.340382
C -6.630896 -6.118607 -1.627162
C -7.900096 -6.655992 -1.497724
C -8.132491 -8.018158 -1.709619
C -7.104298 -8.868469 -2.034073
C -5.798995 -8.366932 -2.182848
C -4.693469 -9.189628 -2.497004
C -3.454606 -8.636650 -2.641921
N -3.243389 -7.302887 -2.521069
C -4.245240 -6.504975 -2.208335
C -5.551823 -6.974565 -2.003283
H -8.720788 -6.012419 -1.220056
H -9.135657 -8.401321 -1.601238
H -7.283621 -9.922573 -2.176161
H -4.840962 -10.251161 -2.616137
H -2.578437 -9.244320 -2.861314
H -4.028752 -5.442534 -2.118411
C -1.893783 3.289124 -4.213751
C -1.774911 4.392451 -3.731675
C -1.677517 5.654881 -3.117372
C -2.235995 6.779722 -3.699826
C -2.189445 8.022488 -3.057981
C -1.609541 8.158852 -1.822729
C -1.024652 7.037454 -1.196700
C -0.456842 7.099343 0.090228
N 0.089799 6.054761 0.675524
C 0.160830 4.868247 0.020675
C -0.384994 4.695057 -1.218678
C -1.028685 5.775251 -1.855869
H -2.719681 6.693821 -4.661022
H -2.631346 8.878261 -3.544801
H -1.595130 9.114178 -1.322841
H -0.464146 8.032424 0.648136
H 0.678305 4.070290 0.549776
H -0.338473 3.742428 -1.721220
C -2.035373 1.996826 -4.753856
C -1.549487 0.887661 -4.050817
C -1.692535 -0.378851 -4.570352
C -2.321046 -0.566421 -5.806879
C -2.807993 0.542488 -6.509677
C -2.668202 1.809640 -5.988330
H -1.059119 1.035720 -3.101771
H -1.310244 -1.234090 -4.036858
H -3.292013 0.397520 -7.464082
H -3.042282 2.664790 -6.531153
C -2.438846 -1.854795 -6.361658
C -2.513213 -2.960275 -6.848898
C -2.543150 -4.205613 -7.501635
C -2.819401 -4.264256 -8.856652
C -2.782671 -5.478621 -9.548469
C -2.452596 -6.647483 -8.907879
C -2.174531 -6.638176 -7.529394
C -1.812981 -7.801251 -6.812264
C -1.576580 -7.726250 -5.470528
N -1.706241 -6.565911 -4.780625
C -2.017757 -5.454680 -5.418117
C -2.243280 -5.413835 -6.802768
H -3.054811 -3.354987 -9.388178
H -3.003919 -5.486268 -10.604904
H -2.402450 -7.578854 -9.449777
H -1.724789 -8.739712 -7.335914
H -1.273905 -8.597903 -4.893219
H -2.107410 -4.546715 -4.825716
