308
cid:69, pot: -183.735565278654
Pd -1.511348 4.338611 -0.239788
Pd 1.952118 -4.292029 0.189282
C 6.443855 -0.154989 0.493021
C 6.707969 -1.335303 0.463953
C 7.115695 -2.674604 0.311910
C 8.466071 -2.973654 0.281539
C 8.912464 -4.271747 0.012501
C 8.023464 -5.280686 -0.262887
C 6.640318 -5.025835 -0.231686
C 5.673599 -6.011434 -0.533620
C 4.346123 -5.706947 -0.455833
N 3.911109 -4.489048 -0.048831
C 4.781943 -3.532315 0.206955
C 6.168650 -3.721945 0.099095
H 9.186454 -2.188464 0.452704
H 9.973688 -4.468496 -0.000052
H 8.371796 -6.272097 -0.506548
H 5.997475 -6.996921 -0.827772
H 3.576585 -6.430491 -0.716930
H 4.388275 -2.570331 0.526121
C 6.135932 1.220999 0.428156
C 7.163110 2.169742 0.461033
C 6.860320 3.511120 0.315975
C 5.551554 3.924579 0.133127
C 4.514077 2.989246 0.103745
C 4.816715 1.638043 0.262991
H 8.185568 1.849942 0.590875
H 7.654273 4.242256 0.334854
H 5.346616 4.972198 -0.020969
H 4.032308 0.898722 0.283941
C 3.124266 3.405604 -0.105899
C 2.630883 4.623974 0.371978
C 1.298987 4.938428 0.195101
N 0.447857 4.104780 -0.409800
C 0.905432 2.950656 -0.911075
C 2.224940 2.577463 -0.791286
H 3.273510 5.308202 0.901602
H 0.883965 5.877419 0.549609
H 0.169177 2.328190 -1.417517
H 2.569586 1.657999 -1.236063
C 1.621676 -1.856101 5.768356
C 1.992896 -2.999668 5.633819
C 2.315756 -4.369349 5.582548
C 2.571456 -5.052251 6.758141
C 2.775913 -6.436197 6.759526
C 2.695182 -7.162637 5.597706
C 2.448698 -6.509252 4.376420
C 2.324383 -7.199981 3.149892
C 2.114098 -6.502892 1.996040
N 2.065389 -5.148354 1.974044
C 2.142117 -4.470061 3.102466
C 2.297334 -5.092130 4.351069
H 2.597543 -4.510029 7.690884
H 2.975981 -6.934902 7.695552
H 2.816330 -8.234495 5.607379
H 2.392969 -8.275956 3.139733
H 1.976514 -7.004982 1.040848
H 2.095511 -3.385321 3.037980
C 1.093936 -0.556910 5.930194
C 0.955465 -0.013970 7.211698
C 0.361873 1.224867 7.369322
C -0.102098 1.930884 6.272294
C 0.034825 1.404610 4.985214
C 0.645362 0.161994 4.824093
H 1.304135 -0.567441 8.070012
H 0.249216 1.640431 8.359124
H -0.600934 2.874673 6.426024
H 0.800919 -0.249463 3.839745
C -0.467360 2.129354 3.814073
C -0.466238 3.526355 3.745472
C -0.904561 4.154563 2.597721
N -1.320663 3.469151 1.528959
C -1.365541 2.132064 1.584072
C -0.963577 1.436165 2.701565
H -0.101638 4.117688 4.569396
H -0.921810 5.237189 2.512706
H -1.738783 1.632520 0.691162
H -1.044604 0.361621 2.726966
C -6.002050 0.200971 -0.548464
C -6.265996 1.381083 -0.512787
C -6.674012 2.719442 -0.352998
C -8.024609 3.017120 -0.315916
C -8.471193 4.313559 -0.038983
C -7.581979 5.321971 0.237373
C -6.198763 5.068662 0.199369
C -5.231718 6.053810 0.501678
C -3.904206 5.750945 0.417295
N -3.469704 4.535151 0.003420
C -4.340698 3.578745 -0.253247
C -5.727183 3.766650 -0.139194
H -8.744882 2.232005 -0.487674
H -9.532439 4.509203 -0.021199
H -7.930166 6.311967 0.486947
H -5.555286 7.037756 0.801237
H -3.134460 6.474127 0.678470
H -3.947289 2.618560 -0.578301
C -5.693911 -1.175263 -0.491137
C -6.720258 -2.124332 -0.535256
C -6.417434 -3.466455 -0.397378
C -5.109240 -3.880355 -0.210665
C -4.072596 -2.944704 -0.169941
C -4.375295 -1.592653 -0.322101
H -7.742300 -1.804408 -0.668088
H -7.210771 -4.197954 -0.424897
H -4.904523 -4.928794 -0.062255
H -3.591155 -0.852783 -0.334086
C -2.683510 -3.361340 0.043576
C -2.187041 -4.576191 -0.439975
C -0.855638 -4.890640 -0.259297
N -0.007647 -4.060118 0.354418
C -0.468634 -2.909817 0.861337
C -1.787896 -2.536960 0.738417
H -2.826733 -5.257577 -0.976735
H -0.438255 -5.827049 -0.618165
H 0.264846 -2.290049 1.375028
H -2.135194 -1.620926 1.187984
C -1.156932 1.911666 -5.823617
C -1.532271 3.053824 -5.688083
C -1.859658 4.422371 -5.635503
C -2.112274 5.106812 -6.810904
C -2.321286 6.490003 -6.810549
C -2.248162 7.214354 -5.646965
C -2.004954 6.559373 -4.425880
C -1.887959 7.248098 -3.197575
C -1.680053 6.549596 -2.044189
N -1.626989 5.195156 -2.024389
C -1.696977 4.518682 -3.154416
C -1.849040 5.142705 -4.402492
H -2.132425 4.566246 -7.744881
H -2.518784 6.989893 -7.746523
H -2.372808 8.285785 -5.655049
H -1.960133 8.323917 -3.185607
H -1.547917 7.050479 -1.087615
H -1.646998 3.434151 -3.091940
C -0.624539 0.614396 -5.985497
C -0.473997 0.076270 -7.267646
C 0.123693 -1.160659 -7.424523
C 0.580006 -1.869592 -6.326097
C 0.431081 -1.348000 -5.038461
C -0.183714 -0.107437 -4.878201
H -0.816621 0.632040 -8.126942
H 0.245598 -1.572475 -8.414819
H 1.082234 -2.811599 -6.478806
H -0.348606 0.300274 -3.893763
C 0.925709 -2.075332 -3.865693
C 0.927550 -3.472516 -3.801248
C 1.359315 -4.103084 -2.652331
N 1.766125 -3.419860 -1.578643
C 1.807686 -2.082516 -1.629200
C 1.411732 -1.384245 -2.747370
H 0.570410 -4.062239 -4.629686
H 1.378645 -5.185925 -2.570293
H 2.172841 -1.584545 -0.731990
H 1.489583 -0.309457 -2.768915
Pd -0.342317 -0.578356 -4.549920
Pd 0.702297 0.758114 4.603775
C -4.589727 -2.071916 3.434066
C -4.311705 -1.750724 4.566816
C -4.131317 -1.308566 5.891644
C -5.111979 -1.566622 6.832672
C -5.027231 -1.041941 8.126618
C -3.984357 -0.227086 8.490651
C -2.957922 0.053286 7.570421
C -1.872528 0.906810 7.871269
C -0.893889 1.113701 6.943706
N -0.898710 0.485744 5.742070
C -1.912294 -0.290000 5.410459
C -3.000061 -0.522098 6.266855
H -5.963939 -2.169596 6.558210
H -5.809700 -1.267020 8.835259
H -3.940818 0.206156 9.477594
H -1.831749 1.390854 8.833951
H -0.064220 1.792902 7.128612
H -1.876399 -0.769821 4.435365
C -4.953150 -2.356834 2.100142
C -6.179042 -2.971656 1.825506
C -6.563797 -3.174329 0.512976
C -5.750741 -2.770177 -0.532454
C -4.520804 -2.159841 -0.273961
C -4.126066 -1.966938 1.048764
H -6.820816 -3.276539 2.637746
H -7.513031 -3.642934 0.301620
H -6.093072 -2.900383 -1.546931
H -3.165209 -1.534625 1.277286
C -3.653816 -1.709611 -1.366894
C -3.583212 -2.385651 -2.589294
C -2.706708 -1.949455 -3.561675
N -1.900692 -0.900986 -3.371149
C -1.978953 -0.213830 -2.224767
C -2.843054 -0.576325 -1.216445
H -4.186150 -3.260572 -2.769921
H -2.629570 -2.448191 -4.523457
H -1.317196 0.647128 -2.141395
H -2.907364 0.017989 -0.319381
C 2.152402 -4.973359 3.114789
C 2.285817 -4.598028 4.257200
C 2.588144 -4.213940 5.577713
C 3.140384 -5.138965 6.445548
C 3.565913 -4.764967 7.724638
C 3.478975 -3.461008 8.144131
C 2.913635 -2.487806 7.299965
C 2.820996 -1.123896 7.658210
C 2.234492 -0.235760 6.804555
N 1.686849 -0.625565 5.627347
C 1.784344 -1.883124 5.242228
C 2.421252 -2.865255 6.016684
H 3.259160 -6.162241 6.123692
H 3.989270 -5.514678 8.375532
H 3.842146 -3.168668 9.116857
H 3.220722 -0.797567 8.604873
H 2.180143 0.826622 7.032198
H 1.333290 -2.150638 4.289328
C 2.090520 -5.378240 1.763918
C 2.481457 -6.671916 1.403974
C 2.497132 -7.035614 0.070045
C 2.135393 -6.130578 -0.913414
C 1.736346 -4.836584 -0.569197
C 1.707177 -4.473338 0.776209
H 2.776601 -7.375698 2.166985
H 2.805353 -8.032117 -0.207734
H 2.198571 -6.425127 -1.949076
H 1.364515 -3.495085 1.073130
C 1.368114 -3.859411 -1.598022
C 0.743328 -4.234192 -2.791977
C 0.373798 -3.266024 -3.703088
N 0.578585 -1.965070 -3.477743
C 1.207940 -1.584495 -2.358826
C 1.623870 -2.493869 -1.412897
H 0.522969 -5.269090 -2.996774
H -0.108351 -3.522516 -4.641906
H 1.368655 -0.513305 -2.245592
H 2.158578 -2.158182 -0.539272
C 4.947153 2.256076 -3.379807
C 4.671717 1.928867 -4.511454
C 4.495071 1.480064 -5.834524
C 5.479171 1.732471 -6.773674
C 5.398402 1.201272 -8.065239
C 4.355961 0.385653 -8.428574
C 3.326127 0.110940 -7.510462
C 2.240787 -0.742837 -7.810734
C 1.258831 -0.944329 -6.885412
N 1.260445 -0.310700 -5.686774
C 2.273682 0.465808 -5.355557
C 3.364404 0.692835 -6.209673
H 6.330724 2.336043 -6.499292
H 6.183495 1.421897 -8.772164
H 4.315300 -0.052604 -9.413412
H 2.202621 -1.231471 -8.771169
H 0.429134 -1.623483 -7.069948
H 2.234839 0.950498 -4.383041
C 5.307528 2.547742 -2.046657
C 6.528401 3.172693 -1.772757
C 6.910613 3.382119 -0.460422
C 6.099726 2.974744 0.585504
C 4.874846 2.354252 0.327834
C 4.482623 2.154683 -0.994655
H 7.168606 3.480094 -2.585304
H 7.856051 3.858513 -0.249626
H 6.440345 3.110363 1.599777
H 3.525359 1.714043 -1.222590
C 4.010142 1.900752 1.421197
C 3.933248 2.579984 2.641363
C 3.058658 2.140543 3.614117
N 2.260017 1.085932 3.425746
C 2.344959 0.395716 2.281583
C 3.207761 0.761112 1.273304
H 4.529730 3.459706 2.820131
H 2.976744 2.641757 4.574248
H 1.689443 -0.470093 2.200034
H 3.277596 0.164288 0.378463
C -1.817582 5.147851 -3.056873
C -1.946653 4.773218 -4.200049
C -2.244312 4.389570 -5.521781
C -2.799656 5.313124 -6.389308
C -3.220439 4.939004 -7.669837
C -3.125722 3.636209 -8.091220
C -2.557166 2.664674 -7.247460
C -2.457001 1.301866 -7.607391
C -1.868169 0.415241 -6.753917
N -1.324969 0.805763 -5.574865
C -1.429319 2.062285 -5.187992
C -2.069447 3.042488 -5.962468
H -2.924434 6.335305 -6.065978
H -3.646362 5.687541 -8.320448
H -3.485248 3.343540 -9.065198
H -2.853049 0.974918 -8.555643
H -1.808302 -0.646517 -6.983092
H -0.981948 2.330701 -4.233863
C -1.760308 5.550827 -1.705292
C -2.163402 6.840291 -1.343340
C -2.182897 7.201559 -0.008762
C -1.813115 6.298270 0.973453
C -1.402143 5.008622 0.627031
C -1.368927 4.647916 -0.718858
H -2.464827 7.542538 -2.105354
H -2.500395 8.194668 0.270488
H -1.879388 6.590319 2.009422
H -1.017098 3.673444 -1.017416
C -1.025999 4.032885 1.654454
C -0.405199 4.410691 2.849558
C -0.028864 3.443996 3.759422
N -0.223213 2.141875 3.531849
C -0.848169 1.758016 2.411631
C -1.270260 2.665566 1.466664
H -0.193418 5.447108 3.056110
H 0.450526 3.702643 4.699134
H -0.999893 0.685634 2.296226
H -1.801004 2.327280 0.591699
