336
cid:69, pot: -286.84597092398565
C -2.185876 -0.915487 3.403748
C -3.629241 -1.081338 3.307728
C -1.635016 0.356865 3.499065
C -0.256822 0.526970 3.630555
H -2.259538 1.236986 3.487853
C 0.568275 -0.591031 3.655688
C 0.029809 -1.874386 3.561025
H 1.637688 -0.492393 3.762811
C -1.345191 -2.028296 3.430430
C 0.892867 -3.045148 3.628489
H -1.792438 -3.008147 3.361394
C 0.313533 1.859345 3.770994
H 0.412275 -4.007923 3.394762
H -4.206776 -0.159024 3.139837
H 1.411693 1.917919 3.716514
C -4.242167 -2.555583 -1.024558
C -4.667848 -3.164674 0.227559
C -3.483816 -3.285794 -1.931875
C -3.102741 -2.727570 -3.152067
H -3.186397 -4.301338 -1.719700
C -3.479936 -1.424095 -3.452207
C -4.241054 -0.678892 -2.551483
H -3.206092 -0.966418 -4.390421
C -4.613522 -1.248414 -1.339709
C -4.668566 0.672114 -2.886392
H -5.207552 -0.699685 -0.624943
C -2.343099 -3.509477 -4.117245
H -5.129774 1.245196 -2.067094
H -4.207956 -4.136022 0.467194
H -1.951376 -2.952321 -4.982376
C 3.169804 -2.917894 -0.386179
C 3.693298 -2.962378 0.971729
C 3.574691 -1.912435 -1.256027
C 3.111304 -1.880663 -2.571254
H 4.264670 -1.145534 -0.938950
C 2.228243 -2.861632 -3.006253
C 1.812898 -3.877043 -2.144666
H 1.856939 -2.868008 -4.019566
C 2.283124 -3.895875 -0.836921
C 0.919317 -4.926045 -2.615247
H 1.985184 -4.671891 -0.148468
C 3.569499 -0.849243 -3.491289
H 0.518771 -5.597135 -1.839746
H 4.261622 -2.076125 1.294223
H 3.043447 -0.801465 -4.457386
C -0.246423 3.700611 -0.425521
C -0.688314 4.200036 0.868873
C -1.161940 3.536133 -1.458042
C -0.745398 3.095787 -2.714360
H -2.208445 3.758031 -1.315707
C 0.598270 2.810864 -2.925326
C 1.528816 2.971010 -1.898461
H 0.952488 2.474466 -3.887714
C 1.099177 3.410642 -0.652021
C 2.941801 2.710203 -2.134536
H 1.795699 3.550569 0.160388
C -1.700862 2.963708 -3.805159
H 3.584381 2.709900 -1.240348
H -1.778558 4.256654 1.012562
H -1.325214 2.466846 -4.713055
C -5.601517 -2.327840 3.358889
C -5.938404 -3.265658 2.181978
N -4.179840 -2.207675 3.438674
N -5.530550 -2.625176 0.971451
C -7.449146 -3.507993 2.126564
H -5.408340 -4.222166 2.341914
C -7.956542 -4.100290 3.435616
H -7.667187 -4.179669 1.293481
H -7.943144 -2.555523 1.926900
C -7.621650 -3.175391 4.600830
H -7.489136 -5.074054 3.599531
H -9.036137 -4.251721 3.375193
C -6.119236 -2.930362 4.667816
H -7.963155 -3.616111 5.539614
H -8.140048 -2.222910 4.468420
H -5.591578 -3.868715 4.846747
H -5.879500 -2.249421 5.487275
H -6.088785 -1.353588 3.172724
C 2.915794 -4.134343 4.037687
C 4.077985 -3.980223 3.035751
N 2.105295 -2.959911 3.962472
N 3.529426 -3.966159 1.716353
C 5.032453 -5.170930 3.160070
H 4.612375 -3.041950 3.270915
C 5.572043 -5.293610 4.579725
H 5.851806 -5.040211 2.449883
H 4.490381 -6.076700 2.882819
C 4.423885 -5.443221 5.572098
H 6.151287 -4.400967 4.827081
H 6.238987 -6.155701 4.645055
C 3.469228 -4.261036 5.459637
H 4.813650 -5.503871 6.590196
H 3.882669 -6.368938 5.363641
H 3.986175 -3.333365 5.711236
H 2.633514 -4.377593 6.153003
H 2.349593 -5.044994 3.770233
C 0.190303 4.162785 4.125191
C -0.344844 5.076263 3.003942
N -0.407123 2.873798 3.971652
N 0.128799 4.570974 1.754059
C 0.187703 6.499054 3.194161
H -1.448714 5.076093 3.057844
C -0.204992 7.052300 4.558511
H -0.207953 7.131998 2.397000
H 1.274321 6.475688 3.095052
C 0.321157 6.148554 5.668386
H -1.293670 7.113880 4.626309
H 0.196447 8.061061 4.674196
C -0.206019 4.730082 5.490970
H 0.014754 6.534127 6.642843
H 1.413143 6.137090 5.639579
H -1.294934 4.720329 5.564491
H 0.188361 4.075613 6.271386
H 1.291277 4.120816 4.038617
C -1.438996 -5.489310 -4.959351
C -0.217243 -6.123912 -4.264555
N -2.172934 -4.750932 -3.980693
N 0.648351 -5.069993 -3.837808
C 0.539640 -7.013290 -5.254672
H -0.580978 -6.729453 -3.414698
C -0.368558 -8.098019 -5.820609
H 1.395102 -7.459842 -4.743226
H 0.922180 -6.383489 -6.059763
C -1.578718 -7.472099 -6.505572
H -0.706462 -8.748552 -5.010667
H 0.190350 -8.709519 -6.531914
C -2.342107 -6.587531 -5.527572
H -2.239981 -8.253148 -6.886053
H -1.244474 -6.871420 -7.354724
H -2.722182 -7.184349 -4.696686
H -3.195896 -6.119510 -6.022244
H -1.072297 -4.841752 -5.776336
C -4.992230 2.463860 -4.346517
C -3.777495 3.287987 -4.819444
N -4.542711 1.140339 -4.049905
N -2.873604 3.417861 -3.720543
C -4.233243 4.684780 -5.250521
H -3.315935 2.760907 -5.674120
C -5.278369 4.602291 -6.356217
H -3.362141 5.249615 -5.589506
H -4.645560 5.196096 -4.378930
C -6.478961 3.785280 -5.890918
H -4.838550 4.130800 -7.238066
H -5.595515 5.608847 -6.636361
C -6.037259 2.391173 -5.463217
H -7.213319 3.706371 -6.695049
H -6.956472 4.290101 -5.047929
H -5.600050 1.857781 -6.309083
H -6.892028 1.811978 -5.107423
H -5.421977 2.962887 -3.459067
C 4.963481 0.905646 -4.142129
C 4.795733 2.292718 -3.489297
N 4.527654 -0.081699 -3.205773
N 3.399477 2.526100 -3.294426
C 5.351662 3.375074 -4.418683
H 5.351893 2.292849 -2.534282
C 6.818057 3.117573 -4.742618
H 5.232017 4.347691 -3.936569
H 4.758189 3.379888 -5.334539
C 6.985973 1.745192 -5.385737
H 7.406841 3.161807 -3.823354
H 7.186603 3.894620 -5.415316
C 6.439311 0.659362 -4.467075
H 8.041003 1.553916 -5.591677
H 6.448231 1.721925 -6.336416
H 6.999129 0.640525 -3.530381
H 6.536999 -0.322276 -4.935677
H 4.364293 0.887782 -5.070534
C 1.541242 3.113898 -1.957013
C 2.947450 2.811082 -2.182659
C 1.115744 3.563619 -0.712786
C -0.221917 3.893822 -0.495450
H 1.810106 3.680314 0.105098
C -1.134346 3.759869 -1.535034
C -0.722028 3.309672 -2.789361
H -2.174691 4.013368 -1.399927
C 0.613962 2.984383 -2.991034
C -1.672377 3.208933 -3.887924
H 0.964904 2.639487 -3.951739
C -0.656921 4.403299 0.797454
H -1.303627 2.704945 -4.794857
H 3.583016 2.791747 -1.283780
H -1.745636 4.495040 0.933910
C 2.986577 -1.785262 -2.618701
C 3.482581 -0.766265 -3.532770
C 2.079340 -2.738956 -3.064675
C 1.626345 -3.744105 -2.210093
H 1.717740 -2.731711 -4.081480
C 2.083119 -3.779800 -0.898094
C 2.993740 -2.829342 -0.436211
H 1.756284 -4.548429 -0.214649
C 3.436354 -1.833897 -1.299084
C 3.500970 -2.893727 0.927204
H 4.145390 -1.088318 -0.973247
C 0.707451 -4.765412 -2.692345
H 4.091130 -2.025647 1.259859
H 2.966611 -0.702958 -4.503407
H 0.279875 -5.426584 -1.922708
C -4.325498 -0.368622 -2.671401
C -4.710256 0.995237 -3.005671
C -4.727590 -0.929873 -1.465138
C -4.399174 -2.248282 -1.149697
H -5.312412 -0.365321 -0.755251
C -3.653590 -2.998789 -2.050861
C -3.242858 -2.449129 -3.265372
H -3.389094 -4.023373 -1.838595
C -3.577679 -1.134123 -3.566079
C -2.496393 -3.250917 -4.224620
H -3.280044 -0.682759 -4.500208
C -4.856916 -2.845639 0.096841
H -2.079105 -2.703608 -5.083939
H -5.163587 1.577941 -2.188634
H -4.429550 -3.830581 0.340999
C -0.367924 0.705525 3.546446
C 0.244921 2.017857 3.695861
C 0.420190 -0.438735 3.576886
C -0.158529 -1.703749 3.474192
H 1.491055 -0.375007 3.694609
C -1.536359 -1.812910 3.329796
C -2.340303 -0.673267 3.297313
H -2.014396 -2.777477 3.254101
C -1.749681 0.580450 3.400955
C -3.787270 -0.792803 3.186557
H -2.345256 1.480355 3.385712
C 0.666077 -2.901611 3.547492
H -4.333286 0.147433 3.012536
H 1.344880 2.039681 3.650306
H 0.158358 -3.847913 3.304549
C 4.798714 2.339398 -3.523024
C 4.931425 0.947095 -4.172756
N 3.408372 2.613421 -3.339187
N 4.460038 -0.026640 -3.239150
C 6.401875 0.657964 -4.486251
H 4.339103 0.945129 -5.105800
C 6.986101 1.726042 -5.402582
H 6.474887 -0.326939 -4.952462
H 6.954052 0.624837 -3.545452
C 6.853050 3.103788 -4.762774
H 6.454785 1.716507 -6.357165
H 8.036682 1.504275 -5.600650
C 5.392269 3.403779 -4.449887
H 7.248470 3.868759 -5.434076
H 7.436253 3.132796 -3.839461
H 4.805863 3.424158 -5.370037
H 5.297183 4.380246 -3.970155
H 5.347488 2.325102 -2.563949
C -3.730356 3.595312 -4.918193
C -4.970450 2.801307 -4.459842
N -2.832570 3.695607 -3.811051
N -4.559592 1.464632 -4.165803
C -6.007352 2.761769 -5.585737
H -5.394501 3.307454 -3.573762
C -6.408594 4.169293 -6.009462
H -6.880094 2.203410 -5.240249
H -5.577146 2.221479 -6.430702
C -5.182994 4.956703 -6.460334
H -6.879818 4.682140 -5.167811
H -7.137942 4.113958 -6.820247
C -4.145443 5.005688 -5.345575
H -5.471136 5.972724 -6.737552
H -4.748372 4.478404 -7.341064
H -4.551453 5.523261 -4.474712
H -3.256967 5.549156 -5.674195
H -3.275669 3.060454 -5.771731
C -0.298346 5.259505 2.938715
C 0.197633 4.322327 4.058334
N 0.165935 4.744140 1.689348
N -0.442674 3.055395 3.894576
C -0.186977 4.896132 5.424729
H 1.297045 4.242841 3.978284
C 0.388897 6.294210 5.612659
H 0.179255 4.224230 6.203850
H -1.275945 4.924431 5.491703
C -0.098458 7.221633 4.504598
H 1.480043 6.244142 5.590069
H 0.090609 6.685336 6.587457
C 0.282503 6.661819 3.139681
H 0.337713 8.214893 4.627938
H -1.184564 7.321246 4.566705
H 1.368244 6.600823 3.046604
H -0.086035 7.312429 2.343530
H -1.401871 5.297392 2.985441
C -0.446360 -5.925571 -4.356427
C -1.641813 -5.254552 -5.062633
N 0.444641 -4.898186 -3.918038
N -2.364562 -4.497276 -4.089861
C -2.569843 -6.324865 -5.643333
H -1.247727 -4.615856 -5.873853
C -1.821704 -7.228794 -6.615381
H -3.404552 -5.831426 -6.145837
H -2.975894 -6.912411 -4.818065
C -0.637505 -7.890996 -5.919266
H -1.461190 -6.635959 -7.459220
H -2.501049 -7.989665 -7.005068
C 0.295352 -6.834111 -5.340781
H -0.088789 -8.516533 -6.626131
H -1.002700 -8.533533 -5.114707
H 0.704448 -6.213822 -6.140105
H 1.131953 -7.306333 -4.821302
H -0.836376 -6.522422 -3.512075
C 3.829392 -3.931418 2.991725
C 2.649262 -4.054404 3.976916
N 3.298828 -3.895195 1.665520
N 1.876402 -2.855351 3.896387
C 3.178697 -4.204559 5.405797
H 2.059177 -4.945961 3.697314
C 4.094966 -5.416037 5.525346
H 2.330159 -4.298530 6.086924
H 3.720343 -3.294297 5.669114
C 5.260918 -5.297146 4.549730
H 3.528496 -6.323724 5.304784
H 4.468413 -5.493412 6.548492
C 4.745285 -5.151356 3.123406
H 5.900141 -6.179587 4.619802
H 5.863683 -4.423913 4.809564
H 4.179673 -6.038840 2.834009
H 5.578104 -5.042479 2.425272
H 4.388829 -3.010872 3.238312
C -6.151738 -2.905456 2.037528
C -5.798469 -1.976450 3.216641
N -5.710658 -2.279487 0.831187
N -4.374660 -1.901010 3.311726
C -6.349593 -2.559514 4.520790
H -6.252638 -0.987649 3.023458
C -7.858124 -2.756868 4.437239
H -6.097405 -1.884835 5.341625
H -5.854038 -3.513817 4.707149
C -8.209280 -3.673056 3.269990
H -8.344409 -1.788550 4.297301
H -8.224047 -3.184365 5.372980
C -7.668744 -3.100043 1.965718
H -9.292391 -3.790150 3.197692
H -7.774948 -4.660800 3.440909
H -8.130031 -2.132777 1.758666
H -7.898579 -3.766349 1.131529
H -5.653768 -3.877735 2.204592
