308
cid:69, pot: -187.21478122747288
Pd -0.183526 4.216010 -1.702426
Pd -0.402720 -4.692757 0.990799
C 5.316118 -2.536281 1.156805
C 5.099690 -3.699934 1.407431
C 4.961354 -5.088918 1.593626
C 6.086450 -5.856540 1.836082
C 6.007620 -7.251338 1.906925
C 4.816073 -7.901884 1.704144
C 3.643575 -7.161838 1.466241
C 2.391581 -7.769655 1.220913
C 1.286425 -6.993827 1.026803
N 1.335054 -5.641301 1.107273
C 2.490865 -5.035863 1.298750
C 3.697285 -5.737456 1.449972
H 7.042868 -5.371257 1.956642
H 6.905979 -7.817432 2.100711
H 4.765245 -8.979234 1.722488
H 2.324030 -8.845192 1.185410
H 0.315031 -7.427944 0.799183
H 2.483468 -3.949889 1.352226
C 5.575085 -1.203982 0.769139
C 6.886399 -0.717423 0.771190
C 7.141990 0.562201 0.313744
C 6.114196 1.365048 -0.151365
C 4.798427 0.895143 -0.154348
C 4.537900 -0.389764 0.318768
H 7.691484 -1.344951 1.121329
H 8.155151 0.934711 0.309452
H 6.345533 2.342925 -0.543143
H 3.527612 -0.763311 0.364715
C 3.699168 1.723505 -0.658655
C 3.689596 3.115121 -0.518898
C 2.601503 3.838910 -0.961953
N 1.535464 3.251058 -1.512667
C 1.538829 1.924441 -1.693581
C 2.596474 1.138357 -1.295858
H 4.510952 3.626121 -0.043615
H 2.563132 4.920687 -0.873027
H 0.654060 1.508705 -2.173544
H 2.583963 0.077546 -1.487029
C -0.132371 -1.012620 5.843892
C -0.228978 -2.208170 6.001935
C -0.463912 -3.568787 6.278377
C -0.575336 -3.986376 7.592516
C -0.928110 -5.303770 7.904180
C -1.207289 -6.212612 6.914168
C -1.095838 -5.836127 5.563226
C -1.396711 -6.712930 4.496632
C -1.239521 -6.293780 3.207783
N -0.753840 -5.064560 2.906517
C -0.494877 -4.205726 3.873289
C -0.679742 -4.514144 5.230040
H -0.402762 -3.279457 8.389496
H -1.002480 -5.594522 8.940911
H -1.515250 -7.217271 7.158034
H -1.753196 -7.707032 4.713910
H -1.497274 -6.929583 2.363547
H -0.109740 -3.230099 3.585516
C -0.120547 0.386420 5.656418
C -0.122372 1.239612 6.764692
C -0.194291 2.607362 6.574956
C -0.270375 3.140835 5.299489
C -0.263086 2.301808 4.182229
C -0.176849 0.923635 4.371999
H -0.076434 0.826469 7.760586
H -0.202418 3.265019 7.430827
H -0.370241 4.208074 5.180167
H -0.128099 0.255395 3.527302
C -0.361929 2.847795 2.825342
C 0.189238 4.085570 2.478285
C 0.109750 4.527336 1.173436
N -0.467616 3.800293 0.212583
C -1.034648 2.628955 0.527691
C -1.012928 2.132172 1.811192
H 0.699147 4.686652 3.213235
H 0.522405 5.485332 0.870841
H -1.511984 2.096522 -0.293776
H -1.508623 1.202550 2.039112
C -5.901314 2.057403 -1.872923
C -5.685256 3.222438 -2.117090
C -5.548080 4.612586 -2.295652
C -6.674368 5.380706 -2.531377
C -6.596894 6.776028 -2.594284
C -5.405420 7.426261 -2.390427
C -4.231796 6.685902 -2.159401
C -2.979705 7.293287 -1.913569
C -1.873436 6.517282 -1.726158
N -1.921249 5.165144 -1.813777
C -3.077019 4.559841 -2.006197
C -4.284328 5.261326 -2.151049
H -7.630616 4.895304 -2.652508
H -7.496058 7.342424 -2.782793
H -5.355414 8.503740 -2.402746
H -2.912838 8.368657 -1.872480
H -0.901998 6.951018 -1.498357
H -3.068759 3.474130 -2.065768
C -6.159668 0.722952 -1.492462
C -7.469586 0.233034 -1.505187
C -7.724951 -1.049036 -1.054529
C -6.698116 -1.851121 -0.585683
C -5.383754 -1.377839 -0.571929
C -5.123431 -0.090407 -1.038373
H -8.274038 0.859787 -1.858178
H -8.737103 -1.424220 -1.058422
H -6.929591 -2.831052 -0.199273
H -4.113782 0.285935 -1.075803
C -4.285532 -2.205235 -0.063933
C -4.271369 -3.596208 -0.209401
C -3.183984 -4.318879 0.237250
N -2.122643 -3.730526 0.796623
C -2.131015 -2.404714 0.983229
C -3.188354 -1.619791 0.582585
H -5.088437 -4.107476 -0.691695
H -3.142141 -5.400268 0.143961
H -1.250338 -1.988609 1.470309
H -3.179941 -0.559920 0.778661
C -0.428034 0.534047 -6.558164
C -0.335825 1.730076 -6.715605
C -0.105581 3.091643 -6.991263
C 0.009263 3.509540 -8.305042
C 0.357443 4.828341 -8.615586
C 0.628703 5.738509 -7.624641
C 0.513635 5.361733 -6.274087
C 0.806884 6.239837 -5.206519
C 0.646991 5.820169 -3.918209
N 0.165494 4.588912 -3.618404
C -0.086463 3.728864 -4.586036
C 0.102027 4.038020 -5.942177
H -0.157131 2.801644 -9.102619
H 0.434631 5.119235 -9.652103
H 0.933178 6.744448 -7.867434
H 1.159891 7.235549 -5.422578
H 0.899176 6.457211 -3.073249
H -0.468285 2.751704 -4.299721
C -0.434833 -0.864971 -6.370387
C -0.420002 -1.718390 -7.478361
C -0.343626 -3.085733 -7.287644
C -0.275807 -3.618695 -6.011439
C -0.295980 -2.779370 -4.894581
C -0.386870 -1.401704 -5.085439
H -0.459425 -1.305623 -8.474720
H -0.325511 -3.743510 -8.143297
H -0.172199 -4.685316 -5.890957
H -0.445659 -0.733409 -4.241365
C -0.205196 -3.324531 -3.536785
C -0.753432 -4.564570 -3.193246
C -0.680967 -5.005783 -1.887824
N -0.113320 -4.276113 -0.923224
C 0.450460 -3.102216 -1.234498
C 0.435230 -2.605656 -2.518189
H -1.255559 -5.168031 -3.931715
H -1.091593 -5.965462 -1.587737
H 0.919465 -2.567196 -0.409824
H 0.927843 -1.673712 -2.742928
Pd 3.960314 2.632220 -0.069936
Pd -3.331928 -3.133292 0.429658
C -5.121098 2.451806 -1.299029
C -5.942222 1.583355 -1.111592
C -6.973934 0.676652 -0.800672
C -8.291643 1.074840 -0.938196
C -9.342564 0.248371 -0.526755
C -9.095666 -0.969116 0.057079
C -7.771743 -1.420601 0.206711
C -7.447487 -2.649298 0.824977
C -6.144204 -3.042786 0.911776
N -5.135639 -2.310431 0.378172
C -5.394114 -1.141479 -0.174855
C -6.692657 -0.615376 -0.261600
H -8.510832 2.045823 -1.355199
H -10.358350 0.591112 -0.652434
H -9.906814 -1.588087 0.407173
H -8.237371 -3.263417 1.227046
H -5.856644 -3.964334 1.413687
H -4.554367 -0.586376 -0.585963
C -4.169171 3.486896 -1.421640
C -4.579024 4.774722 -1.781871
C -3.653433 5.801158 -1.821365
C -2.326093 5.568730 -1.502826
C -1.900459 4.286529 -1.146641
C -2.830080 3.248412 -1.119246
H -5.615099 4.962030 -2.018570
H -3.971645 6.796260 -2.093065
H -1.632635 6.394811 -1.499197
H -2.522002 2.241810 -0.886429
C -0.503172 4.023937 -0.789553
C 0.559945 4.712583 -1.382704
C 1.857912 4.383695 -1.049288
N 2.141716 3.408389 -0.181255
C 1.140467 2.762507 0.429348
C -0.179473 3.048650 0.163515
H 0.377194 5.478811 -2.118329
H 2.706539 4.901005 -1.487392
H 1.436303 1.998689 1.147110
H -0.962520 2.534964 0.697400
C -1.516794 -2.500571 -5.356068
C -2.417931 -3.262674 -5.089742
C -3.385908 -4.258612 -4.857783
C -3.883879 -4.984702 -5.924834
C -4.753865 -6.061365 -5.722495
C -5.112538 -6.450503 -4.456096
C -4.639881 -5.734607 -3.341002
C -4.946658 -6.099461 -2.010610
C -4.479637 -5.344655 -0.974435
N -3.760001 -4.213801 -1.176849
C -3.423863 -3.859828 -2.401999
C -3.800452 -4.598937 -3.534216
H -3.582984 -4.725556 -6.928377
H -5.124673 -6.602933 -6.579331
H -5.753722 -7.304079 -4.301687
H -5.545608 -6.977114 -1.827784
H -4.665322 -5.617823 0.062065
H -2.843593 -2.947130 -2.517331
C -0.401023 -1.687507 -5.650334
C 0.061592 -1.586136 -6.966274
C 1.203746 -0.854765 -7.235479
C 1.897431 -0.226565 -6.215036
C 1.444222 -0.313221 -4.896235
C 0.285312 -1.038962 -4.625785
H -0.469279 -2.085398 -7.762213
H 1.564147 -0.782378 -8.250393
H 2.809738 0.300705 -6.445315
H -0.109734 -1.088568 -3.623768
C 2.176177 0.329557 -3.800780
C 2.871469 1.530881 -3.973217
C 3.501216 2.116928 -2.894332
N 3.457926 1.581236 -1.671074
C 2.829693 0.412919 -1.488705
C 2.195719 -0.241039 -2.520770
H 2.898614 2.018256 -4.934071
H 4.053936 3.046540 -2.994121
H 2.852209 0.015067 -0.475145
H 1.728637 -1.197060 -2.348500
C 5.747992 -2.951778 1.663507
C 6.569270 -2.084906 1.469622
C 7.601139 -1.180965 1.151380
C 8.918784 -1.581912 1.282608
C 9.969451 -0.758743 0.863885
C 9.722146 0.458172 0.279175
C 8.398515 0.912503 0.135859
C 8.073782 2.140911 -0.482704
C 6.770929 2.537288 -0.563450
N 5.763511 1.808059 -0.023493
C 6.022176 0.639451 0.530374
C 7.320082 0.110683 0.611449
H 9.137856 -2.552626 1.700277
H 10.984940 -1.103705 0.984600
H 10.532771 1.074620 -0.076506
H 8.862902 2.752576 -0.889905
H 6.483038 3.458663 -1.065334
H 5.183317 0.087198 0.946971
C 4.795419 -3.985206 1.793347
C 5.203709 -5.270381 2.164479
C 4.277232 -6.295875 2.211075
C 2.950454 -6.064904 1.888946
C 2.526326 -4.785425 1.521819
C 3.456788 -3.748265 1.487410
H 6.239338 -5.456698 2.403956
H 4.594267 -7.288995 2.491148
H 2.256492 -6.890481 1.890951
H 3.149740 -2.743385 1.245729
C 1.129715 -4.524345 1.161078
C 0.065431 -5.207183 1.758660
C -1.231997 -4.879472 1.421687
N -1.514118 -3.910280 0.546135
C -0.511484 -3.270553 -0.068843
C 0.807862 -3.556181 0.200070
H 0.246664 -5.967961 2.500300
H -2.081549 -5.392404 1.863205
H -0.805882 -2.511975 -0.792628
H 1.591720 -3.047785 -0.337437
C 2.128690 2.019615 5.714951
C 3.032720 2.778317 5.448566
C 4.004139 3.770861 5.216268
C 4.500212 4.499689 6.282424
C 5.373847 5.573112 6.079194
C 5.738148 5.956440 4.812642
C 5.267536 5.237726 3.698622
C 5.579634 5.596892 2.368049
C 5.114009 4.839929 1.332942
N 4.390550 3.711741 1.536747
C 4.049377 3.362846 2.762015
C 4.424275 4.105042 3.892931
H 4.194954 4.245054 7.285889
H 5.743064 6.116919 6.935328
H 6.382253 6.807647 4.657329
H 6.181803 6.472374 2.184051
H 5.303842 5.109112 0.296150
H 3.466207 2.452450 2.878821
C 1.009895 1.210433 6.008142
C 0.539213 1.119076 7.322039
C -0.605531 0.391058 7.589514
C -1.293989 -0.243613 6.569399
C -0.832658 -0.166704 5.252829
C 0.328818 0.555390 4.984162
H 1.065974 1.623412 8.117553
H -0.972041 0.326379 8.602697
H -2.208224 -0.767957 6.797771
H 0.730075 0.597390 3.984289
C -1.559327 -0.815702 4.157430
C -2.257529 -2.014835 4.333486
C -2.882687 -2.606257 3.254885
N -2.832208 -2.077993 2.028724
C -2.200733 -0.912088 1.842419
C -1.570788 -0.253085 2.873756
H -2.290497 -2.496175 5.297280
H -3.437504 -3.534414 3.357232
H -2.216846 -0.520470 0.826192
H -1.100627 0.700778 2.698304
