372
cid:69, pot: -241.87709781851035
Pd 1.825773 7.112058 -0.249325
Pd -2.043556 -6.216293 -0.651473
C 2.945414 -2.118955 3.564398
C 2.585795 -3.274132 3.558093
C 2.101669 -4.595530 3.556566
C 2.374018 -5.459192 4.603567
C 1.841944 -6.753351 4.627852
C 1.016200 -7.196978 3.626666
C 0.717404 -6.349166 2.538867
C -0.160634 -6.725604 1.504445
N -0.440218 -5.936557 0.488768
C 0.158399 -4.722952 0.385839
C 1.003028 -4.251624 1.349367
C 1.284192 -5.044115 2.480655
H 3.001854 -5.125571 5.415876
H 2.080053 -7.400218 5.458153
H 0.591558 -8.187547 3.660630
H -0.646817 -7.697777 1.525093
H -0.081674 -4.155675 -0.511391
H 1.458004 -3.277909 1.265337
C 3.344138 -0.768798 3.562104
C 4.147790 -0.265108 4.591461
C 4.531341 1.057834 4.586386
C 4.117081 1.907694 3.553414
C 3.309440 1.404336 2.527041
C 2.929115 0.081509 2.529950
H 4.468829 -0.920698 5.387165
H 5.155043 1.446124 5.377706
H 3.000501 2.059422 1.728500
H 2.312962 -0.310698 1.736509
C 4.539959 3.250106 3.538117
C 4.925022 4.397253 3.506737
C 5.475699 5.690786 3.471144
C 6.550155 6.002591 4.286123
C 7.166662 7.255559 4.219227
C 6.736535 8.208507 3.329156
C 5.641384 7.940626 2.488568
C 5.157725 8.869734 1.539592
C 4.076835 8.553877 0.769171
N 3.418715 7.375537 0.900875
C 3.854067 6.472908 1.757633
C 4.979422 6.680973 2.570126
H 6.924157 5.260567 4.974975
H 8.002091 7.463531 4.870228
H 7.229422 9.165786 3.263959
H 5.651941 9.822025 1.432210
H 3.693643 9.237090 0.013316
H 3.297806 5.540698 1.827640
C -3.328170 -0.324876 4.161929
C -3.621217 -1.498627 4.155682
C -3.896358 -2.879339 4.139796
C -4.379117 -3.526983 5.263498
C -4.592003 -4.910488 5.262651
C -4.309787 -5.668176 4.155180
C -3.824814 -5.044600 2.985633
C -3.476604 -5.769469 1.829938
N -3.029733 -5.189439 0.735873
C -2.929253 -3.837713 0.676122
C -3.212240 -3.045181 1.751454
C -3.639800 -3.632904 2.959349
H -4.585646 -2.956346 6.156198
H -4.971688 -5.380597 6.156653
H -4.455240 -6.736568 4.166493
H -3.563972 -6.853325 1.816591
H -2.613259 -3.430941 -0.281996
H -3.112641 -1.973107 1.694750
C -2.975631 1.038392 4.140751
C -3.560367 1.939130 5.037952
C -3.225688 3.274581 4.993847
C -2.294796 3.738110 4.055600
C -1.694963 2.832473 3.173104
C -2.033988 1.498982 3.212455
H -4.281811 1.583104 5.758256
H -3.683664 3.972259 5.679048
H -0.968809 3.189372 2.460795
H -1.577088 0.797960 2.532138
C -2.001026 5.113092 3.989711
C -1.787368 6.302094 3.912114
C -1.647069 7.699415 3.839468
C -2.354213 8.504954 4.715641
C -2.289810 9.898636 4.627159
C -1.537424 10.511248 3.655542
C -0.796942 9.734120 2.747040
C -0.017703 10.299906 1.712507
C 0.689299 9.489058 0.873360
N 0.695641 8.140341 1.012069
C -0.034882 7.573349 1.951771
C -0.825532 8.312248 2.845452
H -2.971796 8.047173 5.473167
H -2.853602 10.494403 5.328617
H -1.506631 11.586586 3.576974
H 0.007179 11.371412 1.594656
H 1.281111 9.890709 0.052819
H -0.002019 6.488190 2.023824
C -2.961119 2.970408 -4.660997
C -2.584200 4.120039 -4.660247
C -2.081469 5.435064 -4.659319
C -2.280549 6.279329 -5.737617
C -1.725936 7.564327 -5.759289
C -0.952253 8.017652 -4.721839
C -0.733048 7.191096 -3.599065
C 0.084117 7.579995 -2.520559
N 0.285181 6.813193 -1.469557
C -0.339410 5.612374 -1.375328
C -1.127965 5.128724 -2.379677
C -1.322728 5.895954 -3.546146
H -2.865276 5.936884 -6.577818
H -1.904651 8.195515 -6.616116
H -0.509516 9.000433 -4.752706
H 0.586807 8.544174 -2.534620
H -0.172904 5.066567 -0.449276
H -1.605560 4.165545 -2.298044
C -3.385295 1.627744 -4.635305
C -2.725384 0.705435 -3.814132
C -3.143238 -0.605369 -3.769548
C -4.235236 -1.023183 -4.538861
C -4.885611 -0.103692 -5.371479
C -4.463598 1.206647 -5.421431
H -1.886725 1.032789 -3.220533
H -2.635728 -1.317934 -3.139821
H -5.723816 -0.427515 -5.970131
H -4.968683 1.916291 -6.059798
C -4.709744 -2.346020 -4.460965
C -5.151761 -3.469169 -4.368412
C -5.766278 -4.729840 -4.264508
C -6.893362 -5.006494 -5.019206
C -7.567645 -6.224248 -4.890224
C -7.142989 -7.176134 -3.996233
C -5.999029 -6.942284 -3.212518
C -5.519364 -7.870968 -2.261150
C -4.394023 -7.588406 -1.543337
N -3.690458 -6.444477 -1.729179
C -4.116971 -5.543937 -2.592573
C -5.280953 -5.719347 -3.356855
H -7.260905 -4.264751 -5.711728
H -8.442023 -6.405492 -5.496467
H -7.677918 -8.106012 -3.884260
H -6.052382 -8.796045 -2.109543
H -4.010589 -8.271217 -0.787219
H -3.522765 -4.639713 -2.706279
C 3.329840 1.144019 -4.892824
C 3.641496 2.313064 -4.883914
C 3.935474 3.689293 -4.870056
C 4.494545 4.313283 -5.972065
C 4.730484 5.692713 -5.976959
C 4.393908 6.471291 -4.899238
C 3.826033 5.873250 -3.754177
C 3.413930 6.621367 -2.634775
N 2.884722 6.065406 -1.565530
C 2.756986 4.716247 -1.493324
C 3.099313 3.902933 -2.535081
C 3.617698 4.465021 -3.719344
H 4.746123 3.726260 -6.842301
H 5.172232 6.143653 -6.852236
H 4.558048 7.536862 -4.916231
H 3.518072 7.703556 -2.630522
H 2.364045 4.331552 -0.554172
H 2.975855 2.833800 -2.472705
C 2.948187 -0.211024 -4.891830
C 2.277336 -0.748109 -3.786352
C 1.894637 -2.070199 -3.783479
C 2.176934 -2.887937 -4.883793
C 2.846894 -2.350892 -5.989945
C 3.226760 -1.026965 -5.994568
H 2.067579 -0.117659 -2.936854
H 1.387377 -2.489842 -2.929730
H 3.065407 -2.982190 -6.838327
H 3.744787 -0.613374 -6.846882
C 1.821033 -4.249796 -4.873402
C 1.539081 -5.426682 -4.849624
C 1.318937 -6.815637 -4.836859
C 1.955197 -7.620411 -5.766005
C 1.815462 -9.011037 -5.731825
C 1.057658 -9.621816 -4.763287
C 0.384074 -8.844082 -3.804638
C -0.398686 -9.408445 -2.771913
C -1.043500 -8.595196 -1.886215
N -0.986441 -7.243277 -1.977144
C -0.246959 -6.679143 -2.911593
C 0.487312 -7.423157 -3.848143
H 2.578475 -7.165702 -6.520715
H 2.326396 -9.606932 -6.472737
H 0.971048 -10.696383 -4.725967
H -0.476364 -10.481044 -2.692857
H -1.635092 -8.997631 -1.065933
H -0.227383 -5.591966 -2.945176
Pd -1.336991 -6.173265 1.759405
Pd 1.019839 7.046489 -1.770633
C -2.582474 3.528502 4.068788
C -2.348816 4.681158 3.785023
C -2.009525 6.005260 3.450104
C -2.150249 7.033994 4.365660
C -1.756287 8.339283 4.049893
C -1.197728 8.634001 2.832460
C -1.040977 7.614648 1.869289
C -0.431517 7.840418 0.620169
N -0.284785 6.891138 -0.279663
C -0.767526 5.645826 -0.039059
C -1.349252 5.315603 1.151125
C -1.474515 6.290114 2.161849
H -2.564996 6.823273 5.339754
H -1.885700 9.116476 4.787279
H -0.876155 9.637029 2.601786
H -0.050764 8.826681 0.366606
H -0.657616 4.934064 -0.854946
H -1.712150 4.317762 1.337329
C -2.836486 2.180728 4.386494
C -3.361815 1.833820 5.636640
C -3.604295 0.513193 5.943684
C -3.323801 -0.490696 5.008557
C -2.793882 -0.143319 3.760532
C -2.555025 1.176633 3.452069
H -3.579846 2.607963 6.357229
H -4.013829 0.245071 6.906161
H -2.588246 -0.918188 3.039747
H -2.153668 1.447729 2.488507
C -3.604719 -1.834808 5.317668
C -3.871562 -2.988406 5.569363
C -4.285990 -4.296293 5.878162
C -5.137597 -4.512474 6.947674
C -5.626494 -5.790614 7.233653
C -5.291406 -6.867371 6.450274
C -4.420452 -6.697812 5.359233
C -4.047499 -7.759069 4.503487
C -3.181067 -7.530000 3.474669
N -2.631072 -6.310147 3.254905
C -2.972894 -5.289384 4.016154
C -3.884974 -5.407548 5.076348
H -5.437413 -3.677254 7.562100
H -6.288587 -5.921682 8.075948
H -5.689182 -7.847930 6.659885
H -4.455505 -8.742826 4.672033
H -2.891631 -8.319797 2.783737
H -2.509974 -4.328566 3.801715
C 3.830142 2.268173 3.595718
C 3.997095 3.435038 3.323188
C 4.123987 4.801699 3.009492
C 4.756003 5.679628 3.872638
C 4.824973 7.048059 3.586374
C 4.251062 7.562484 2.452179
C 3.605314 6.699355 1.541330
C 2.960730 7.168414 0.380809
N 2.362868 6.364662 -0.473373
C 2.388011 5.022596 -0.275150
C 2.959680 4.467981 0.834023
C 3.560814 5.299807 1.800349
H 5.194106 5.302923 4.784427
H 5.328001 7.701930 4.281845
H 4.288312 8.620362 2.246741
H 2.934760 8.233198 0.161484
H 1.927803 4.422443 -1.056951
H 2.958370 3.400616 0.986602
C 3.618634 0.906821 3.887542
C 4.459188 0.230753 4.778929
C 4.257672 -1.106678 5.040053
C 3.207994 -1.796242 4.420222
C 2.355200 -1.113454 3.545370
C 2.560184 0.221310 3.279101
H 5.271673 0.760693 5.253321
H 4.911722 -1.631876 5.720050
H 1.539794 -1.643155 3.079842
H 1.907792 0.750789 2.602951
C 3.045916 -3.174056 4.658416
C 2.940982 -4.366939 4.835863
C 2.929303 -5.758466 5.038188
C 3.875347 -6.337809 5.866395
C 3.934138 -7.724169 6.036517
C 3.066536 -8.555274 5.371769
C 2.084279 -8.011970 4.524588
C 1.173105 -8.810830 3.797061
C 0.234145 -8.219285 3.003510
N 0.121118 -6.871697 2.904789
C 0.965556 -6.092701 3.551503
C 1.989780 -6.598316 4.366889
H 4.583999 -5.707342 6.381428
H 4.684313 -8.139959 6.691550
H 3.128164 -9.625783 5.488992
H 1.232262 -9.884623 3.874631
H -0.467651 -8.805082 2.412658
H 0.839544 -5.017781 3.440065
C 2.024473 -2.661514 -4.232134
C 1.772326 -3.810895 -3.950878
C 1.414077 -5.129956 -3.613683
C 1.475278 -6.150159 -4.546708
C 1.058932 -7.447340 -4.225169
C 0.559368 -7.741534 -2.982470
C 0.489360 -6.731358 -1.999258
C -0.050708 -6.957307 -0.718814
N -0.111546 -6.018320 0.201859
C 0.395994 -4.785553 -0.050556
C 0.913606 -4.454519 -1.269958
C 0.945136 -5.416266 -2.300101
H 1.841515 -5.938688 -5.539817
H 1.123565 -8.217811 -4.977908
H 0.220022 -8.737347 -2.746270
H -0.446947 -7.935463 -0.456685
H 0.365719 -4.084821 0.780814
H 1.299156 -3.466053 -1.461508
C 2.308719 -1.315116 -4.531581
C 1.738991 -0.295538 -3.759315
C 2.024073 1.022866 -4.033730
C 2.891370 1.352717 -5.081518
C 3.449229 0.333106 -5.863188
C 3.159009 -0.986062 -5.593092
H 1.074125 -0.554727 -2.950807
H 1.585238 1.809786 -3.442090
H 4.112974 0.587864 -6.675858
H 3.593410 -1.771951 -6.193036
C 3.237173 2.692692 -5.338253
C 3.574224 3.837881 -5.539347
C 4.067916 5.130453 -5.790624
C 4.986419 5.326908 -6.807562
C 5.547655 6.585974 -7.040308
C 5.218831 7.662648 -6.254098
C 4.285407 7.512669 -5.213080
C 3.916897 8.574284 -4.355826
C 2.993190 8.365045 -3.373711
N 2.384607 7.165756 -3.202033
C 2.716292 6.145327 -3.968114
C 3.678962 6.242988 -4.984702
H 5.279174 4.490904 -7.424175
H 6.259414 6.701713 -7.843369
H 5.669697 8.627853 -6.423158
H 4.374318 9.542132 -4.485577
H 2.703693 9.154525 -2.682348
H 2.204783 5.201302 -3.792307
C -4.334567 -1.301061 -3.409449
C -4.519576 -2.463894 -3.131154
C -4.665654 -3.827704 -2.816083
C -5.370053 -4.682971 -3.645997
C -5.463034 -6.049973 -3.360936
C -4.840196 -6.587208 -2.263582
C -4.115904 -5.748611 -1.389685
C -3.414132 -6.243514 -0.273887
N -2.738627 -5.462941 0.542777
C -2.734453 -4.119465 0.351091
C -3.359161 -3.541655 -0.716519
C -4.046658 -4.349429 -1.644969
H -5.849178 -4.288704 -4.529298
H -6.024742 -6.685317 -4.028347
H -4.897002 -7.644592 -2.059972
H -3.406488 -7.309407 -0.059949
H -2.200812 -3.539811 1.101885
H -3.333232 -2.474655 -0.868349
C -4.097980 0.050191 -3.725584
C -3.275295 0.827800 -2.901502
C -3.033975 2.147203 -3.210327
C -3.612511 2.721822 -4.348007
C -4.434413 1.944149 -5.172886
C -4.673158 0.622832 -4.866062
H -2.836741 0.384557 -2.021572
H -2.409689 2.751772 -2.572395
H -4.881359 2.388032 -6.050032
H -5.308281 0.023734 -5.501337
C -3.399744 4.080011 -4.650684
C -3.237889 5.254893 -4.892500
C -3.159626 6.631737 -5.168191
C -4.047244 7.204552 -6.062530
C -4.043237 8.582215 -6.300584
C -3.170739 9.411320 -5.639620
C -2.243541 8.872835 -4.729693
C -1.329220 9.670222 -4.004483
C -0.441157 9.081318 -3.152250
N -0.379985 7.735886 -2.993387
C -1.232353 6.960054 -3.633565
C -2.210863 7.465927 -4.503275
H -4.761121 6.577374 -6.574131
H -4.749891 8.993897 -7.005015
H -3.186294 10.476621 -5.808481
H -1.344802 10.740955 -4.130903
H 0.260276 9.667811 -2.561747
H -1.149524 5.887256 -3.473494
