308
cid:69, pot: -188.99608940562462
Pd 1.916948 3.518736 -2.780540
Pd -1.505333 -2.708190 3.234527
C 3.994189 -0.754980 5.057516
C 3.422243 -1.621464 5.678666
C 2.891081 -2.713764 6.391287
C 3.601832 -3.240420 7.454931
C 3.168374 -4.397200 8.111184
C 2.042058 -5.063409 7.696825
C 1.280998 -4.558172 6.626993
C 0.128772 -5.210102 6.132543
C -0.581923 -4.651310 5.110966
N -0.246377 -3.452446 4.574031
C 0.842115 -2.830818 4.983766
C 1.677359 -3.347920 5.986524
H 4.514065 -2.759090 7.772616
H 3.747069 -4.777560 8.939135
H 1.730821 -5.975712 8.181013
H -0.175051 -6.148807 6.567432
H -1.451851 -5.144376 4.682030
H 1.075033 -1.874172 4.522430
C 4.699552 0.184963 4.275636
C 5.973215 0.607407 4.670113
C 6.691110 1.466139 3.858185
C 6.164613 1.907999 2.656182
C 4.891396 1.499302 2.251268
C 4.161548 0.644147 3.075120
H 6.391681 0.255102 5.600338
H 7.676731 1.786562 4.160107
H 6.762052 2.542519 2.020809
H 3.161395 0.344421 2.806438
C 4.323774 1.942407 0.974420
C 4.593403 3.205185 0.436918
C 3.985770 3.590601 -0.740516
N 3.125790 2.798324 -1.387065
C 2.882922 1.569808 -0.913337
C 3.467006 1.107506 0.244180
H 5.249376 3.891692 0.946868
H 4.176025 4.561894 -1.187746
H 2.195761 0.962119 -1.500314
H 3.278157 0.100996 0.580774
C -2.341493 2.954387 5.333354
C -2.777957 2.013141 5.955613
C -3.424006 0.991465 6.677895
C -4.153316 1.314392 7.808197
C -4.907218 0.347468 8.481844
C -4.972406 -0.943809 8.020961
C -4.238094 -1.320958 6.881772
C -4.283811 -2.624574 6.338242
C -3.523938 -2.932889 5.247801
N -2.678108 -2.035484 4.684893
C -2.633402 -0.799101 5.141692
C -3.418503 -0.361005 6.219541
H -4.152832 2.332547 8.166043
H -5.461329 0.635374 9.362157
H -5.584203 -1.678144 8.521067
H -4.925169 -3.363840 6.790652
H -3.563438 -3.915017 4.781668
H -1.942730 -0.112036 4.658055
C -1.919074 4.054129 4.555711
C -2.163061 5.357941 4.999281
C -1.821172 6.429417 4.194938
C -1.245139 6.224910 2.952537
C -0.989297 4.928583 2.498259
C -1.321066 3.848266 3.314137
H -2.623905 5.520474 5.961471
H -2.015817 7.435219 4.534893
H -1.028585 7.075674 2.326028
H -1.097618 2.839357 3.006551
C -0.397474 4.692524 1.178019
C 0.526706 5.573791 0.607421
C 1.089553 5.275605 -0.616667
N 0.793073 4.153773 -1.279068
C -0.116243 3.312730 -0.770499
C -0.734689 3.552569 0.435587
H 0.824570 6.470611 1.125541
H 1.806263 5.940020 -1.090466
H -0.333921 2.429955 -1.370055
H -1.487730 2.873426 0.801034
C -3.580346 1.561383 -4.605447
C -3.011002 2.432392 -5.222534
C -2.483666 3.529637 -5.930477
C -3.198067 4.060200 -6.989833
C -2.768884 5.221532 -7.640978
C -1.643143 5.888030 -7.225699
C -0.878387 5.378969 -6.160381
C 0.273617 6.030790 -5.665307
C 0.987957 5.468382 -4.648178
N 0.656111 4.266150 -4.116428
C -0.431931 3.644151 -4.526918
C -1.270558 4.164455 -5.525239
H -4.109947 3.578472 -7.307815
H -3.350348 5.604880 -8.465466
H -1.335032 6.803561 -7.705787
H 0.574541 6.972243 -6.096227
H 1.857759 5.961216 -4.218909
H -0.661563 2.684576 -4.069893
C -4.282776 0.615869 -3.827725
C -5.551705 0.185029 -4.228055
C -6.267247 -0.679310 -3.420018
C -5.742922 -1.118587 -2.215997
C -4.474484 -0.701428 -1.805170
C -3.746903 0.159343 -2.625244
H -5.968647 0.535197 -5.159778
H -7.249316 -1.006256 -3.726412
H -6.338811 -1.757645 -1.583796
H -2.750081 0.465867 -2.351722
C -3.909034 -1.141800 -0.526470
C -4.172152 -2.406969 0.008586
C -3.566326 -2.789567 1.187887
N -2.713870 -1.992396 1.838529
C -2.477913 -0.761641 1.367111
C -3.060826 -0.301843 0.208067
H -4.821573 -3.097319 -0.504513
H -3.751662 -3.762775 1.633279
H -1.797148 -0.149967 1.957364
H -2.877801 0.706388 -0.126322
C 2.776548 -2.146670 -4.868384
C 3.209002 -1.204720 -5.492475
C 3.850824 -0.181844 -6.216805
C 4.583081 -0.504308 -7.345370
C 5.332813 0.464382 -8.020977
C 5.390952 1.757245 -7.563719
C 4.653533 2.133930 -6.426389
C 4.692441 3.439134 -5.886303
C 3.930274 3.746715 -4.797301
N 3.088238 2.846828 -4.232595
C 3.049773 1.608989 -4.686193
C 3.838004 1.171854 -5.762217
H 4.588058 -1.523583 -7.700314
H 5.889359 0.176720 -8.899869
H 5.999547 2.493218 -8.065240
H 5.330625 4.180394 -6.340167
H 3.964865 4.730257 -4.333806
H 2.362247 0.919870 -4.201394
C 2.358448 -3.246217 -4.088162
C 2.613740 -4.550017 -4.525289
C 2.275487 -5.620619 -3.718300
C 1.691984 -5.415325 -2.479459
C 1.425002 -4.119001 -2.031676
C 1.752981 -3.039700 -2.850328
H 3.080432 -4.713087 -5.484596
H 2.478831 -6.626371 -4.053342
H 1.478412 -6.264945 -1.850601
H 1.520935 -2.031106 -2.547954
C 0.825896 -3.881798 -0.714916
C -0.094821 -4.766812 -0.144556
C -0.663966 -4.467883 1.076412
N -0.376945 -3.341901 1.735867
C 0.528567 -2.496698 1.227487
C 1.152764 -2.736800 0.024410
H -0.384965 -5.667459 -0.660582
H -1.378275 -5.135028 1.550044
H 0.738218 -1.610082 1.824360
H 1.902359 -2.054035 -0.341151
Pd 3.962691 -2.055452 1.987114
Pd -3.164944 2.784581 -1.539700
C 1.368080 2.351251 -5.619739
C 0.383320 3.005899 -5.875214
C -0.663693 3.885637 -6.211425
C -0.628830 4.549902 -7.424421
C -1.584188 5.520398 -7.744104
C -2.565419 5.866354 -6.848785
C -2.647018 5.209142 -5.607651
C -3.613485 5.537076 -4.630158
C -3.657450 4.840483 -3.458092
N -2.826014 3.798633 -3.210014
C -1.887536 3.485245 -4.081876
C -1.716421 4.176574 -5.291549
H 0.158076 4.326334 -8.128367
H -1.527227 6.015970 -8.701315
H -3.278336 6.641236 -7.083222
H -4.306335 6.341051 -4.820687
H -4.364068 5.090829 -2.669503
H -1.240600 2.645503 -3.839739
C 2.555461 1.667953 -5.279388
C 3.608991 1.597302 -6.196626
C 4.798395 0.996666 -5.827295
C 4.959405 0.469180 -4.557194
C 3.914198 0.527101 -3.631850
C 2.710319 1.120616 -4.007412
H 3.491282 2.018534 -7.183170
H 5.613417 0.948325 -6.533489
H 5.911355 0.044829 -4.279662
H 1.874193 1.143912 -3.327182
C 4.071007 -0.010339 -2.277063
C 4.862134 -1.131658 -2.006805
C 4.927412 -1.627923 -0.720915
N 4.241765 -1.079814 0.286416
C 3.509588 0.018007 0.060132
C 3.411891 0.582488 -1.191509
H 5.399748 -1.629321 -2.797342
H 5.535190 -2.493943 -0.475300
H 2.997828 0.434112 0.926780
H 2.842370 1.486552 -1.334278
C -3.281196 -2.959278 -3.580347
C -4.168384 -2.195661 -3.886231
C -5.300628 -1.415607 -4.189902
C -6.322570 -1.964659 -4.943531
C -7.513912 -1.265095 -5.163387
C -7.717348 -0.026083 -4.609038
C -6.701592 0.576838 -3.844792
C -6.856757 1.836058 -3.222329
C -5.821106 2.378109 -2.518690
N -4.614354 1.766735 -2.431221
C -4.441516 0.574947 -2.968850
C -5.459696 -0.098351 -3.661666
H -6.204128 -2.955471 -5.354695
H -8.288145 -1.724014 -5.759137
H -8.651396 0.494879 -4.749419
H -7.797888 2.355257 -3.306875
H -5.918670 3.327291 -1.996228
H -3.458120 0.120475 -2.871789
C -2.299673 -3.873767 -3.141108
C -2.354593 -5.208936 -3.553778
C -1.439368 -6.117394 -3.054821
C -0.472777 -5.720199 -2.146485
C -0.401049 -4.388590 -1.729569
C -1.314696 -3.469288 -2.242450
H -3.114890 -5.524626 -4.251556
H -1.486365 -7.149173 -3.368514
H 0.201149 -6.457034 -1.738755
H -1.256933 -2.427742 -1.969677
C 0.603519 -3.954049 -0.754397
C 1.877361 -4.528179 -0.690785
C 2.800209 -4.045216 0.214269
N 2.524578 -3.025409 1.032329
C 1.300161 -2.483726 1.015507
C 0.321104 -2.925239 0.154546
H 2.155495 -5.326405 -1.359357
H 3.796164 -4.471145 0.293604
H 1.129499 -1.674271 1.723853
H -0.664961 -2.491355 0.189770
C -0.568698 -1.617431 6.068328
C 0.413313 -2.277328 6.320804
C 1.456281 -3.162997 6.653897
C 1.417527 -3.832237 7.864179
C 2.368238 -4.808378 8.180619
C 3.348654 -5.154787 7.284676
C 3.434285 -4.492720 6.046415
C 4.400304 -4.820604 5.068479
C 4.448322 -4.119452 3.899232
N 3.621397 -3.073230 3.654616
C 2.683460 -2.759287 4.526988
C 2.508530 -3.454748 5.733828
H 0.630982 -3.608068 8.568324
H 2.308106 -5.307724 9.135515
H 4.057934 -5.933804 7.516370
H 5.089616 -5.628208 5.256313
H 5.154702 -4.369577 3.110457
H 2.040538 -1.915710 4.287717
C -1.753215 -0.927965 5.731009
C -2.802429 -0.847666 6.652321
C -3.989735 -0.240809 6.285990
C -4.152710 0.283482 5.014766
C -3.111908 0.215916 4.085302
C -1.910134 -0.383723 4.457883
H -2.683331 -1.266418 7.639769
H -4.801487 -0.185072 6.995349
H -5.103178 0.712656 4.739843
H -1.077162 -0.414727 3.774020
C -3.270719 0.750043 2.729461
C -4.055724 1.875512 2.458978
C -4.122700 2.368617 1.171877
N -3.443957 1.813576 0.163536
C -2.718167 0.711529 0.390351
C -2.619510 0.149869 1.643098
H -4.587326 2.378813 3.250019
H -4.725861 3.237852 0.926102
H -2.212242 0.289824 -0.476933
H -2.055544 -0.757492 1.786110
C 4.093934 3.697145 4.008366
C 4.978573 2.931827 4.317497
C 6.108351 2.149520 4.624679
C 7.132260 2.698926 5.375496
C 8.321221 1.996541 5.598666
C 8.520457 0.754173 5.050362
C 7.502727 0.150955 4.289165
C 7.653728 -1.111463 3.672458
C 6.616576 -1.653442 2.971160
N 5.411717 -1.038730 2.880704
C 5.242518 0.156047 3.412951
C 6.262968 0.829245 4.102779
H 7.017042 3.692182 5.781862
H 9.097060 2.455798 6.192104
H 9.452773 0.230794 5.193218
H 8.593334 -1.633475 3.759495
H 6.711290 -2.605248 2.452961
H 4.260908 0.613383 3.313770
C 3.115159 4.612493 3.564994
C 3.177253 5.950618 3.967207
C 2.264247 6.859159 3.464250
C 1.292827 6.459246 2.562126
C 1.214230 5.124793 2.155731
C 2.125384 4.205470 2.672717
H 3.941300 6.268312 4.660011
H 2.316758 7.893027 3.769883
H 0.620839 7.195637 2.150937
H 2.062310 3.162105 2.408279
C 0.205032 4.687276 1.186586
C -1.066706 5.266004 1.122082
C -1.993503 4.780646 0.222385
N -1.723784 3.754374 -0.589465
C -0.501665 3.207645 -0.571606
C 0.481074 3.650870 0.284283
H -1.339917 6.069938 1.785949
H -2.988069 5.209849 0.142418
H -0.335922 2.392360 -1.274587
H 1.465193 3.212638 0.250315
