336
cid:69, pot: -286.9348497879354
C -1.903958 -1.119154 3.269227
C -3.348657 -1.187645 3.101351
C -1.309989 0.050435 3.728218
C 0.068643 0.115992 3.930006
H -1.901045 0.925456 3.951282
C 0.850846 -0.999974 3.657748
C 0.268831 -2.180848 3.196555
H 1.919209 -0.982522 3.809873
C -1.106045 -2.231260 3.000226
C 1.085660 -3.360915 2.950918
H -1.586602 -3.132174 2.650478
C 0.682855 1.329710 4.449510
H 0.577668 -4.198027 2.447211
H -3.886242 -0.230515 3.186811
H 1.783604 1.352543 4.435896
C -3.877156 -1.366107 -1.481946
C -4.364597 -2.280895 -0.459421
C -3.117674 -1.846983 -2.541886
C -2.677674 -0.987923 -3.548921
H -2.864712 -2.893514 -2.616633
C -2.996928 0.362881 -3.479579
C -3.758412 0.860101 -2.421825
H -2.676706 1.051562 -4.246315
C -4.189963 -0.007827 -1.425859
C -4.125068 2.268427 -2.373561
H -4.785864 0.345411 -0.598216
C -1.916962 -1.502306 -4.678846
H -4.590735 2.609991 -1.436079
H -3.948603 -3.299875 -0.492140
H -1.477669 -0.743799 -5.345189
C 3.492391 -2.219481 -0.820417
C 3.970400 -2.664138 0.481016
C 3.961471 -1.030195 -1.365466
C 3.541673 -0.612298 -2.628276
H 4.668745 -0.413492 -0.832373
C 2.637427 -1.392916 -3.338415
C 2.157798 -2.588982 -2.804293
H 2.298587 -1.099915 -4.320275
C 2.585143 -2.992681 -1.544901
C 1.241675 -3.424470 -3.567849
H 2.237097 -3.915990 -1.107522
C 4.066550 0.613537 -3.213141
H 0.792233 -4.266875 -3.019619
H 4.560380 -1.929075 1.050268
H 3.573634 0.952156 -4.137656
C 0.324881 4.291521 0.926148
C -0.139327 4.429028 2.299375
C -0.562730 4.462279 -0.129461
C -0.122881 4.371943 -1.450112
H -1.604367 4.681703 0.048071
C 1.215433 4.098070 -1.705139
C 2.118077 3.924069 -0.655866
H 1.587498 4.028202 -2.715837
C 1.665434 4.017055 0.654838
C 3.527312 3.677270 -0.926833
H 2.340414 3.893837 1.487874
C -1.047346 4.591807 -2.553392
H 4.140654 3.399101 -0.055674
H -1.230772 4.491458 2.431031
H -0.661513 4.351859 -3.556295
C -5.366072 -2.310454 2.761360
C -5.699583 -2.866844 1.362319
N -3.944198 -2.280301 2.900418
N -5.230119 -1.932758 0.388141
C -7.215686 -3.017054 1.210629
H -5.210417 -3.852456 1.258687
C -7.785939 -3.928003 2.290845
H -7.431650 -3.419318 0.218530
H -7.667712 -2.025825 1.275733
C -7.454523 -3.380654 3.675001
H -7.360119 -4.928508 2.184928
H -8.867902 -4.008676 2.168550
C -5.947008 -3.230721 3.838383
H -7.841720 -4.050235 4.445660
H -7.933061 -2.407100 3.804161
H -5.460182 -4.204110 3.758016
H -5.708600 -2.816727 4.820441
H -5.811004 -1.302395 2.845656
C 3.053106 -4.609358 3.079632
C 4.251487 -4.233374 2.184737
N 2.289155 -3.425933 3.319922
N 3.746099 -3.827535 0.911237
C 5.157074 -5.452478 1.989937
H 4.812266 -3.422546 2.684053
C 5.646318 -5.990083 3.329058
H 6.002875 -5.165177 1.361547
H 4.591158 -6.220044 1.459174
C 4.462423 -6.359693 4.216323
H 6.249832 -5.228412 3.828206
H 6.278686 -6.864782 3.163845
C 3.555957 -5.152066 4.420113
H 4.817085 -6.719142 5.184377
H 3.894438 -7.165626 3.746018
H 4.098400 -4.355222 4.931880
H 2.694871 -5.420365 5.035994
H 2.462598 -5.383274 2.556416
C 0.633212 3.445979 5.432067
C 0.167992 4.658732 4.600909
N -0.006025 2.278734 4.911592
N 0.662281 4.501777 3.269403
C 0.746181 5.946966 5.192745
H -0.936294 4.692338 4.630210
C 0.330863 6.114411 6.649184
H 0.399649 6.794026 4.596898
H 1.833808 5.904158 5.113115
C 0.787817 4.914566 7.471970
H -0.756420 6.202705 6.709424
H 0.765245 7.032069 7.050873
C 0.214743 3.626664 6.893739
H 0.464935 5.026125 8.508993
H 1.879005 4.863323 7.463255
H -0.875582 3.644943 6.939490
H 0.559741 2.763685 7.467462
H 1.734096 3.381192 5.359548
C -1.059935 -3.206553 -6.023217
C 0.114912 -4.063169 -5.509328
N -1.797004 -2.738824 -4.892023
N 1.004657 -3.209498 -4.787033
C 0.869711 -4.673566 -6.693344
H -0.297719 -4.865066 -4.870628
C -0.059291 -5.516076 -7.558721
H 1.691453 -5.282443 -6.310189
H 1.300592 -3.861717 -7.281902
C -1.223191 -4.671044 -8.065369
H -0.446505 -6.351140 -6.970408
H 0.499111 -5.928943 -8.401333
C -1.984278 -4.061593 -6.894462
H -1.900285 -5.284900 -8.662695
H -0.840217 -3.872704 -8.705351
H -2.412306 -4.849108 -6.271859
H -2.804096 -3.436875 -7.255471
H -0.643845 -2.373651 -6.618539
C -4.335966 4.408873 -3.279702
C -3.077303 5.277669 -3.478161
N -3.945100 3.036624 -3.356578
N -2.204689 5.055710 -2.368770
C -3.467416 6.757996 -3.509947
H -2.608466 4.990088 -4.436708
C -4.479137 7.033550 -4.615453
H -2.565779 7.355885 -3.659439
H -3.888187 7.023557 -2.538582
C -5.723170 6.173082 -4.422036
H -4.029106 6.807836 -5.584951
H -4.749970 8.091294 -4.608858
C -5.346880 4.696895 -4.393023
H -6.433961 6.354197 -5.230805
H -6.208387 6.443276 -3.481263
H -4.902878 4.401878 -5.345376
H -6.233266 4.079819 -4.231089
H -4.775103 4.658993 -2.296913
C 5.544143 2.416902 -3.318049
C 5.406825 3.572774 -2.306416
N 5.042709 1.227804 -2.704722
N 4.014602 3.804021 -2.082337
C 6.031492 4.845758 -2.884008
H 5.931928 3.281872 -1.378508
C 7.496992 4.624280 -3.237291
H 5.932411 5.649553 -2.151323
H 5.468054 5.132127 -3.773703
C 7.634710 3.479783 -4.235483
H 8.057441 4.384218 -2.330683
H 7.915096 5.541061 -3.657829
C 7.019513 2.206049 -3.668969
H 8.688013 3.307102 -4.465313
H 7.127015 3.746466 -5.165335
H 7.548156 1.901902 -2.763883
H 7.095901 1.390800 -4.391657
H 4.974564 2.685270 -4.226255
C 2.351392 -2.668427 -2.526277
C 1.469241 -3.523160 -3.308117
C 2.759338 -3.062239 -1.257462
C 3.634952 -2.270469 -0.514490
H 2.420527 -3.991855 -0.826520
C 4.091977 -1.072572 -1.050565
C 3.691190 -0.664166 -2.322805
H 4.775042 -0.441328 -0.503038
C 2.818354 -1.463399 -3.051323
C 4.203431 0.571380 -2.898293
H 2.495058 -1.177847 -4.040772
C 4.092423 -2.705438 0.797728
H 3.724910 0.897352 -3.834919
H 1.026816 -4.375045 -2.768807
H 4.656211 -1.959662 1.379362
C -2.504316 -1.172636 -3.370851
C -1.708871 -1.672407 -4.483233
C -2.853397 0.171332 -3.312595
C -3.647918 0.655389 -2.273235
H -2.530996 0.864457 -4.074391
C -4.082420 -0.218723 -1.284097
C -3.740062 -1.570274 -1.329226
H -4.703417 0.123987 -0.470695
C -2.948012 -2.038227 -2.370880
C -4.230515 -2.490846 -0.313189
H -2.671664 -3.079412 -2.436881
C -4.045422 2.055645 -2.237572
H -3.793062 -3.501199 -0.331447
H -1.272806 -0.905135 -5.141649
H -4.538475 2.389856 -1.311552
C 2.124064 3.848860 -0.397845
C 3.543571 3.630782 -0.637281
C 1.642695 3.936862 0.903036
C 0.291747 4.184615 1.146180
H 2.302951 3.830247 1.750013
C -0.577476 4.333700 0.072178
C -0.109031 4.247915 -1.238952
H -1.626824 4.532480 0.227557
C 1.239747 4.000742 -1.465829
C -1.015002 4.444641 -2.361782
H 1.633507 3.935250 -2.468613
C -0.201352 4.316671 2.509865
H -0.603632 4.209655 -3.355594
H 4.143201 3.369536 0.248606
H -1.296031 4.356923 2.621321
C 0.322885 -2.281919 3.429309
C 1.165141 -3.447854 3.202775
C -1.046679 -2.358102 3.205983
C -1.870180 -1.260449 3.456436
H -1.503465 -3.268449 2.849210
C -1.307246 -0.079024 3.923899
C 0.065900 0.012500 4.152503
H -1.918539 0.785418 4.132943
C 0.873878 -1.089369 3.898665
C 0.646814 1.238838 4.680620
H 1.938491 -1.051837 4.071768
C -3.309766 -1.356811 3.260154
H 1.747011 1.283478 4.686460
H 0.682154 -4.293952 2.689645
H -3.866881 -0.409683 3.329864
C 0.396734 -4.186813 -5.271669
C -0.787050 -3.357003 -5.808644
N 1.252489 -3.313509 -4.532103
N -1.557160 -2.906031 -4.692606
C -1.674090 -4.232266 -6.698125
H -0.378253 -2.514527 -6.395617
C -0.876199 -4.823147 -7.853980
H -2.500873 -3.626363 -7.074992
H -2.096142 -5.029919 -6.084348
C 0.296466 -5.641660 -7.324700
H -0.499083 -4.015616 -8.485875
H -1.527034 -5.451804 -8.464992
C 1.188619 -4.778862 -6.440722
H 0.880765 -6.040848 -8.156221
H -0.083042 -6.486035 -6.744632
H 1.612332 -3.956961 -7.020297
H 2.016255 -5.369108 -6.041597
H -0.009952 -4.998321 -4.641396
C 5.643923 2.405794 -2.975285
C 5.456070 3.561974 -1.972128
N 5.154349 1.207775 -2.369554
N 4.054152 3.763204 -1.782144
C 6.065860 4.846589 -2.539835
H 5.965108 3.286442 -1.030796
C 7.544266 4.656965 -2.856093
H 5.930684 5.650693 -1.813235
H 5.518101 5.116889 -3.444188
C 7.731961 3.512144 -3.845817
H 8.087484 4.433026 -1.935113
H 7.951876 5.581445 -3.270308
C 7.131762 2.227053 -3.289131
H 8.794264 3.362391 -4.048943
H 7.241603 3.763934 -4.788952
H 7.644674 1.938257 -2.370085
H 7.244170 1.410967 -4.006143
H 5.090846 2.657985 -3.898240
C 4.361888 -4.269773 2.508549
C 3.149107 -4.663668 3.375643
N 3.879355 -3.872522 1.223469
N 2.361351 -3.492296 3.597577
C 3.628765 -5.198651 4.727653
H 2.582831 -5.446688 2.839317
C 4.557466 -6.392713 4.545156
H 2.757800 -5.479676 5.323515
H 4.147364 -4.393867 5.251595
C 5.756036 -6.005566 3.685521
H 4.012327 -7.206905 4.061905
H 4.894771 -6.747072 5.521292
C 5.290083 -5.475058 2.335346
H 6.404809 -6.870726 3.535135
H 6.336384 -5.235188 4.198474
H 4.748206 -6.250994 1.791739
H 6.145989 -5.175075 1.726737
H 4.898567 -3.449997 3.019755
C -4.282719 4.188130 -3.155512
C -3.039678 5.083766 -3.330973
N -3.860579 2.824558 -3.219215
N -2.185579 4.884422 -2.202746
C -3.461401 6.554857 -3.376383
H -2.544703 4.803338 -4.278430
C -4.455590 6.804463 -4.503753
H -2.570306 7.172132 -3.509247
H -3.908169 6.814321 -2.415013
C -5.684240 5.917469 -4.333233
H -3.980418 6.585423 -5.462773
H -4.749698 7.856024 -4.506812
C -5.276167 4.449970 -4.290870
H -6.381567 6.080114 -5.157445
H -6.194959 6.180023 -3.403843
H -4.805972 4.161841 -5.232643
H -6.152068 3.814116 -4.145125
H -4.747833 4.431796 -2.183108
C -5.591993 -3.092810 1.484290
C -5.297916 -2.520181 2.885735
N -5.120820 -2.155835 0.513875
N -3.880163 -2.461622 3.053285
C -5.883222 -3.443666 3.957717
H -5.763698 -1.520330 2.953521
C -7.383880 -3.623603 3.764917
H -5.672633 -3.018138 4.941261
H -5.376298 -4.408203 3.894568
C -7.676381 -4.187172 2.378469
H -7.883329 -2.658502 3.877000
H -7.774013 -4.294914 4.532649
C -7.101649 -3.273361 1.303218
H -8.753934 -4.289392 2.234769
H -7.229593 -5.180008 2.288836
H -7.573755 -2.290462 1.351406
H -7.289445 -3.686869 0.309952
H -5.081855 -4.069251 1.397687
C 0.061160 4.557404 4.816279
C 0.537562 3.355721 5.657204
N 0.581101 4.408141 3.493770
N -0.068908 2.174908 5.128202
C 0.091719 3.529893 7.111644
H 1.640552 3.313592 5.602837
C 0.629078 4.830209 7.696468
H 0.444915 2.675087 7.692263
H -0.999245 3.526139 7.139560
C 0.161170 6.019258 6.864358
H 1.721217 4.801068 7.705344
H 0.287536 4.936641 8.728110
C 0.603138 5.858176 5.415095
H 0.570305 6.946116 7.271313
H -0.928462 6.085390 6.907074
H 1.692618 5.837565 5.352904
H 0.248881 6.697069 4.812253
H -1.043818 4.568278 4.827138
