336
cid:68, pot: -291.4633974304688
C -1.249814 -0.879830 4.039815
C -2.482582 -1.651179 4.112835
C -1.294722 0.509157 4.050325
C -0.118833 1.258828 4.019946
H -2.235418 1.036161 4.096384
C 1.105680 0.603637 3.968607
C 1.166512 -0.789949 3.957506
H 2.032979 1.155580 3.950642
C -0.013404 -1.523590 3.988141
C 2.451908 -1.473836 3.944724
H 0.000944 -2.602801 3.987029
C -0.167762 2.713181 4.072048
H 2.413081 -2.562439 3.783579
H -3.414432 -1.076132 3.997186
H 0.786996 3.230858 3.890929
C -2.815364 -3.520924 -0.095619
C -2.813914 -4.171574 1.206934
C -1.907872 -3.914599 -1.071839
C -1.924339 -3.326814 -2.336726
H -1.182887 -4.690375 -0.878519
C -2.853477 -2.330932 -2.613000
C -3.770550 -1.925335 -1.643258
H -2.895599 -1.861482 -3.583849
C -3.742304 -2.520182 -0.387535
C -4.768673 -0.910260 -1.949074
H -4.442745 -2.232533 0.381560
C -0.998995 -3.770296 -3.369714
H -5.350351 -0.537282 -1.091798
H -1.959555 -4.836423 1.408154
H -0.971172 -3.156129 -4.283140
C 4.052360 -0.645844 -0.306296
C 4.672291 -0.375509 0.983101
C 3.898337 0.378102 -1.233295
C 3.341933 0.124673 -2.486988
H 4.217484 1.384634 -1.010171
C 2.930427 -1.164913 -2.801556
C 3.078559 -2.202829 -1.881398
H 2.502224 -1.394099 -3.765313
C 3.634800 -1.935288 -0.636134
C 2.683499 -3.560567 -2.228980
H 3.768384 -2.718268 0.094643
C 3.219703 1.191552 -3.470381
H 2.688210 -4.287048 -1.401693
H 4.831377 0.687171 1.223605
H 2.633882 0.948263 -4.370370
C -1.868774 3.866067 -0.062195
C -2.355515 4.211344 1.265968
C -2.718957 3.260916 -0.979966
C -2.276745 2.960576 -2.268372
H -3.739763 3.023959 -0.722130
C -0.968792 3.262993 -2.627447
C -0.103803 3.870282 -1.716947
H -0.598919 3.048737 -3.618462
C -0.558412 4.163758 -0.436837
C 1.253523 4.222405 -2.109313
H 0.084623 4.639227 0.287845
C -3.182358 2.363877 -3.239977
H 1.916491 4.553604 -1.294904
H -3.344201 3.806702 1.532889
H -2.718844 2.017487 -4.176687
C -3.709958 -3.613622 4.410534
C -3.721657 -4.679003 3.295661
N -2.478525 -2.893784 4.324629
N -3.748616 -4.004963 2.035947
C -4.977994 -5.545484 3.418005
H -2.818430 -5.305656 3.409422
C -5.051599 -6.212174 4.786212
H -4.964572 -6.297978 2.626621
H -5.850958 -4.909644 3.260712
C -5.037250 -5.160051 5.889908
H -4.196768 -6.880862 4.911400
H -5.960774 -6.813090 4.852600
C -3.788429 -4.293948 5.779970
H -5.063087 -5.643020 6.868809
H -5.925619 -4.530287 5.802216
H -2.893351 -4.904027 5.912574
H -3.787694 -3.524717 6.555180
H -4.584967 -2.954394 4.265518
C 4.775763 -1.567535 4.136905
C 5.655330 -0.997202 3.005799
N 3.535194 -0.858421 4.135895
N 5.029740 -1.303199 1.758030
C 7.036822 -1.656448 3.039326
H 5.753122 0.092331 3.162601
C 7.710853 -1.445832 4.389492
H 7.647047 -1.234698 2.237736
H 6.914068 -2.722634 2.841068
C 6.841010 -2.006725 5.509415
H 7.869729 -0.377555 4.554007
H 8.687065 -1.935002 4.392020
C 5.464167 -1.354488 5.487828
H 7.315124 -1.829832 6.476908
H 6.734262 -3.086125 5.379717
H 5.552464 -0.280904 5.663131
H 4.831537 -1.771518 6.274356
H 4.634411 -2.647787 3.951227
C -1.236827 4.761587 4.400092
C -2.218869 5.285506 3.332794
N -1.232148 3.333993 4.337371
N -1.696817 4.951338 2.045294
C -2.335879 6.808507 3.437191
H -3.203975 4.818050 3.513033
C -2.794924 7.227816 4.828306
H -3.040588 7.159626 2.680403
H -1.360473 7.244467 3.214418
C -1.826246 6.708110 5.885179
H -3.791670 6.823444 5.019586
H -2.858327 8.316571 4.880534
C -1.705043 5.192118 5.792810
H -2.173247 6.987899 6.881885
H -0.844366 7.161613 5.731422
H -2.670707 4.723654 5.990977
H -0.993820 4.819959 6.533469
H -0.239312 5.187690 4.188427
C 0.584100 -5.225059 -4.277327
C 2.020808 -5.231945 -3.717002
N -0.298122 -4.809021 -3.233183
N 2.384408 -3.884522 -3.409826
C 2.987585 -5.775169 -4.772675
H 2.037474 -5.878811 -2.821163
C 2.585602 -7.177498 -5.212704
H 3.996917 -5.780380 -4.355515
H 2.981657 -5.095519 -5.626607
C 1.163987 -7.172869 -5.764452
H 2.640981 -7.856505 -4.358736
H 3.281918 -7.536537 -5.973297
C 0.192276 -6.637538 -4.719987
H 0.870581 -8.183992 -6.053616
H 1.123026 -6.542921 -6.656125
H 0.188691 -7.284722 -3.841260
H -0.823189 -6.611166 -5.121031
H 0.555159 -4.536908 -5.141547
C -5.972189 0.474474 -3.391689
C -5.283160 1.705686 -4.014410
N -4.969863 -0.508877 -3.126890
N -4.422086 2.278922 -3.028803
C -6.335633 2.743852 -4.413259
H -4.724407 1.372089 -4.907624
C -7.344498 2.152699 -5.390184
H -5.830233 3.603180 -4.859233
H -6.841779 3.085313 -3.508637
C -8.024641 0.933448 -4.776779
H -6.831830 1.858238 -6.308806
H -8.089871 2.907588 -5.648602
C -6.986254 -0.108501 -4.379717
H -8.727121 0.497427 -5.489902
H -8.589242 1.239409 -3.892977
H -6.445777 -0.457612 -5.261281
H -7.469188 -0.972740 -3.918685
H -6.487146 0.798433 -2.469113
C 3.651252 3.327532 -4.305708
C 2.965995 4.549368 -3.660853
N 3.776131 2.311005 -3.309396
N 1.631519 4.176989 -3.310880
C 2.908598 5.703282 -4.665590
H 3.557113 4.848009 -2.776114
C 4.303937 6.075522 -5.151408
H 2.428633 6.560737 -4.189001
H 2.285652 5.395704 -5.507231
C 4.983951 4.867637 -5.786876
H 4.901866 6.425572 -4.306650
H 4.234776 6.890555 -5.874657
C 5.050125 3.713851 -4.793798
H 5.993068 5.131772 -6.109371
H 4.419748 4.556255 -6.669041
H 5.650930 3.995763 -3.927365
H 5.515583 2.839761 -5.254296
H 3.031742 2.996250 -5.158784
C -0.094332 -3.785896 2.328094
C -1.120069 -3.735462 3.360253
C 1.183712 -3.307573 2.591172
C 2.185292 -3.385784 1.623532
H 1.432344 -2.879887 3.550316
C 1.892472 -3.939618 0.383077
C 0.614223 -4.423849 0.104474
H 2.647533 -4.020011 -0.383900
C -0.373545 -4.339135 1.078379
C 0.321172 -5.040398 -1.181660
H -1.370270 -4.710762 0.895346
C 3.533853 -2.920908 1.916223
H -0.740563 -5.256709 -1.377709
H -0.867130 -3.150473 4.258091
H 4.221602 -2.876549 1.057520
C -4.050391 -0.532085 1.788746
C -4.309961 -1.911743 2.174833
C -4.429342 -0.077622 0.531223
C -4.222049 1.251818 0.163174
H -4.903292 -0.736518 -0.180061
C -3.620642 2.122223 1.064265
C -3.234920 1.680491 2.329977
H -3.452521 3.157877 0.811547
C -3.447925 0.353260 2.682756
C -2.641897 2.604965 3.286012
H -3.166360 -0.016875 3.656671
C -4.657338 1.734250 -1.139816
H -2.226172 2.149052 4.198057
H -4.644380 -2.579568 1.365795
H -4.321268 2.746781 -1.412118
C 0.397557 -1.472390 -4.111056
C 1.153649 -2.716048 -4.150146
C 1.061234 -0.252110 -4.157991
C 0.347207 0.946105 -4.160856
H 2.138267 -0.205006 -4.207539
C -1.040975 0.911915 -4.105759
C -1.720968 -0.305136 -4.058223
H -1.621857 1.821482 -4.112934
C -0.996111 -1.491032 -4.056146
C -3.176594 -0.338234 -4.041261
H -1.493593 -2.448395 -4.026463
C 1.044320 2.221283 -4.251274
H -3.630779 -1.322486 -3.848725
H 2.244541 -2.616022 -4.038115
H 0.424998 3.117758 -4.092721
C 3.058184 1.667675 2.096912
C 3.597614 0.754848 3.094850
C 2.027945 2.537620 2.433347
C 1.528741 3.444156 1.498089
H 1.602952 2.541117 3.425335
C 2.064616 3.464875 0.216063
C 3.098839 2.597470 -0.136301
H 1.704132 4.158652 -0.527820
C 3.586222 1.699849 0.806097
C 3.685329 2.649555 -1.468062
H 4.389924 1.020779 0.565889
C 0.477339 4.381829 1.866254
H 4.384186 1.835396 -1.715464
H 3.028119 0.683208 4.034533
H 0.033695 4.953583 1.036456
C -3.189084 -4.292650 4.284895
C -4.473266 -3.661989 3.709208
N -2.214901 -4.348810 3.240986
N -4.187506 -2.304532 3.366220
C -5.580439 -3.680599 4.766526
H -4.782266 -4.254047 2.828638
C -5.857723 -5.101015 5.243289
H -6.482658 -3.238284 4.338650
H -5.266308 -3.055933 5.604507
C -4.588132 -5.727081 5.810230
H -6.215663 -5.702759 4.404600
H -6.640631 -5.085917 6.004183
C -3.480000 -5.717331 4.764417
H -4.784911 -6.753640 6.125883
H -4.265404 -5.161665 6.687513
H -3.770831 -6.318092 3.901014
H -2.562746 -6.143932 5.175912
H -2.850621 -3.670302 5.133016
C 0.907188 -5.956554 -3.246427
C 1.373416 -5.027026 -4.385274
N 1.231949 -5.332870 -2.002486
N 0.593657 -3.830784 -4.331009
C 1.141089 -5.705805 -5.737921
H 2.450630 -4.824646 -4.244579
C 1.872385 -7.040437 -5.812918
H 1.484324 -5.037050 -6.530234
H 0.067940 -5.855658 -5.867728
C 1.414518 -7.959759 -4.685707
H 2.948295 -6.870968 -5.728432
H 1.681009 -7.509260 -6.780370
C 1.644695 -7.295411 -3.333946
H 1.960239 -8.904553 -4.727256
H 0.351387 -8.180035 -4.806470
H 2.709507 -7.112023 -3.180094
H 1.295988 -7.942252 -2.526023
H -0.180713 -6.116675 -3.356760
C 5.232501 -2.185375 3.337577
C 5.174019 -0.756966 3.915564
N 3.894117 -2.618125 3.085527
N 4.665029 0.112708 2.902389
C 6.581728 -0.294243 4.300858
H 4.524499 -0.774162 4.809579
C 7.213737 -1.246219 5.308766
H 6.519154 0.714251 4.715144
H 7.188256 -0.246954 3.394754
C 7.269811 -2.659903 4.739748
H 6.622466 -1.248152 6.227467
H 8.219592 -0.901720 5.557289
C 5.872890 -3.132198 4.356246
H 7.698636 -3.343479 5.475178
H 7.912513 -2.669967 3.856438
H 5.232356 -3.171588 5.239072
H 5.913401 -4.135563 3.926611
H 5.838684 -2.158204 2.413893
C -5.820790 1.558326 -3.155218
C -5.294968 0.617128 -4.257832
N -5.396476 1.043379 -1.891740
N -3.867925 0.692258 -4.262842
C -5.817557 1.072888 -5.622825
H -5.654047 -0.404636 -4.037887
C -7.340724 1.108934 -5.641317
H -5.442270 0.390686 -6.388652
H -5.414111 2.065255 -5.831622
C -7.862400 2.037134 -4.549660
H -7.730324 0.101521 -5.477556
H -7.687369 1.448432 -6.619513
C -7.351349 1.590010 -3.185556
H -8.954206 2.039112 -4.549151
H -7.524348 3.056809 -4.748456
H -7.720773 0.589610 -2.953684
H -7.704443 2.267116 -2.404783
H -5.418335 2.569802 -3.345530
C -2.060651 4.728488 4.060423
C -0.899103 5.490287 3.390423
N -2.633914 3.850142 3.090109
N 0.122303 4.545809 3.064509
C -0.323793 6.521943 4.364720
H -1.293867 5.998542 2.492041
C -1.399008 7.497929 4.826114
H 0.490540 7.056166 3.870504
H 0.095426 5.990014 5.220640
C -2.549566 6.745797 5.486356
H -1.776550 8.056303 3.966397
H -0.966988 8.213899 5.528269
C -3.132643 5.718799 4.523637
H -3.329631 7.446288 5.791362
H -2.184470 6.238288 6.382189
H -3.543725 6.217022 3.643819
H -3.941594 5.162559 5.002207
H -1.655341 4.177456 4.928332
C 2.919500 3.559654 -4.623929
C 4.038201 3.613876 -3.563870
N 2.273192 2.289309 -4.523141
N 3.427962 3.585592 -2.272060
C 4.827760 4.917861 -3.707834
H 4.706263 2.748268 -3.724288
C 5.418331 5.048128 -5.106352
H 5.619377 4.934248 -2.955748
H 4.154209 5.751890 -3.503574
C 4.313593 4.991851 -6.155909
H 6.125356 4.233460 -5.279924
H 5.964798 5.990007 -5.186987
C 3.523526 3.695659 -6.024281
H 4.743699 5.058700 -7.157213
H 3.641654 5.842625 -6.021089
H 4.173853 2.837533 -6.203036
H 2.716806 3.663710 -6.759699
H 2.221941 4.394712 -4.430796
