372
cid:69, pot: -238.68983874492824
Pd -1.041602 6.800060 -0.192868
Pd 1.202766 -6.873611 -1.071457
C 5.297910 -0.831483 1.413310
C 5.484854 -2.026136 1.372590
C 5.642381 -3.424525 1.359797
C 6.660755 -4.036982 2.069803
C 6.779131 -5.431039 2.103438
C 5.876432 -6.232946 1.452968
C 4.826158 -5.647996 0.713963
C 3.839398 -6.414030 0.064209
N 2.859336 -5.870416 -0.625955
C 2.795054 -4.522429 -0.769378
C 3.685662 -3.688869 -0.156245
C 4.717010 -4.230234 0.637576
H 7.370095 -3.428521 2.610115
H 7.588786 -5.872869 2.663597
H 5.959474 -7.307023 1.499493
H 3.859553 -7.499265 0.125689
H 1.988743 -4.155523 -1.401600
H 3.613055 -2.618548 -0.262669
C 5.057930 0.554907 1.460640
C 5.929700 1.402072 2.154519
C 5.687612 2.757259 2.201140
C 4.566369 3.295363 1.557585
C 3.692497 2.446858 0.868032
C 3.936230 1.093109 0.818195
H 6.795348 0.987578 2.649348
H 6.362093 3.412081 2.732405
H 2.835628 2.866119 0.365791
H 3.268574 0.438015 0.281438
C 4.343629 4.684930 1.582439
C 4.164713 5.882082 1.577757
C 4.056854 7.283322 1.526454
C 5.136717 8.069147 1.890109
C 5.085662 9.461764 1.778326
C 3.968855 10.091057 1.286312
C 2.843293 9.334473 0.914298
C 1.668443 9.916431 0.386306
C 0.603796 9.125925 0.064958
N 0.617516 7.784494 0.263268
C 1.703644 7.201292 0.730716
C 2.866610 7.916418 1.056237
H 6.036090 7.596195 2.254026
H 5.946889 10.042559 2.071520
H 3.941574 11.164101 1.179533
H 1.626579 10.983895 0.239999
H -0.306724 9.539400 -0.365070
H 1.671404 6.122992 0.870625
C -0.257691 -1.963343 4.697789
C -0.009298 -3.145312 4.628088
C 0.335440 -4.505371 4.510979
C 0.687102 -5.253800 5.620660
C 1.089548 -6.588326 5.492259
C 1.166532 -7.187870 4.261467
C 0.807388 -6.461888 3.105677
C 0.903723 -7.004854 1.810214
N 0.563640 -6.331684 0.731190
C 0.058236 -5.077625 0.844032
C -0.047346 -4.448464 2.051317
C 0.359345 -5.115454 3.224758
H 0.658614 -4.797262 6.598389
H 1.354118 -7.141345 6.380278
H 1.497629 -8.209608 4.165705
H 1.277744 -8.015852 1.666878
H -0.258360 -4.612047 -0.086724
H -0.436042 -3.445452 2.124536
C -0.548314 -0.586306 4.748178
C -1.017142 -0.000236 5.929253
C -1.320258 1.343065 5.961634
C -1.155966 2.131318 4.815601
C -0.666743 1.548099 3.641168
C -0.369946 0.204449 3.606486
H -1.148677 -0.608530 6.811722
H -1.691570 1.794390 6.869615
H -0.528412 2.159572 2.764227
H 0.003939 -0.250154 2.702846
C -1.517657 3.491166 4.850373
C -1.871668 4.648460 4.877637
C -2.369299 5.960437 4.970087
C -2.906189 6.406348 6.165720
C -3.470198 7.680979 6.273124
C -3.525863 8.522919 5.189862
C -2.987459 8.115881 3.956144
C -3.028451 8.925138 2.798125
C -2.473912 8.475889 1.635302
N -1.850394 7.274773 1.552464
C -1.809445 6.482097 2.605162
C -2.378677 6.832150 3.839342
H -2.896027 5.754069 7.025514
H -3.877730 7.994936 7.221909
H -3.980616 9.497658 5.270835
H -3.502889 9.892258 2.845226
H -2.508036 9.063948 0.719947
H -1.301993 5.526342 2.491734
C -5.037582 0.799391 -2.941424
C -5.210599 1.996470 -2.913395
C -5.350721 3.397320 -2.909439
C -6.315076 4.023415 -3.679611
C -6.410365 5.419295 -3.721148
C -5.538458 6.208411 -3.015836
C -4.546530 5.608851 -2.210557
C -3.595533 6.361003 -1.494981
N -2.673217 5.804153 -0.738498
C -2.638857 4.455835 -0.590786
C -3.496260 3.634299 -1.264873
C -4.462190 4.189676 -2.128446
H -6.997692 3.424919 -4.263521
H -7.176735 5.872174 -4.331121
H -5.602366 7.283603 -3.067863
H -3.596282 7.446608 -1.558207
H -1.888707 4.076921 0.099792
H -3.447284 2.563362 -1.150112
C -4.811417 -0.590558 -2.956382
C -3.550893 -1.093876 -2.612566
C -3.324919 -2.451709 -2.608018
C -4.355720 -3.338497 -2.939570
C -5.612190 -2.833964 -3.297945
C -5.836870 -1.474930 -3.309067
H -2.760759 -0.406905 -2.354437
H -2.354908 -2.841782 -2.345733
H -6.405547 -3.517770 -3.560293
H -6.807343 -1.086754 -3.580583
C -4.156460 -4.730751 -2.884368
C -4.007757 -5.929026 -2.798152
C -3.936347 -7.326189 -2.654781
C -5.047937 -8.101266 -2.937708
C -5.032033 -9.485274 -2.741526
C -3.918433 -10.115868 -2.243644
C -2.763257 -9.370574 -1.947593
C -1.590800 -9.953816 -1.415796
C -0.498569 -9.175690 -1.164717
N -0.484083 -7.847263 -1.435247
C -1.565000 -7.262306 -1.912509
C -2.752434 -7.963235 -2.174134
H -5.943526 -7.625866 -3.307536
H -5.916976 -10.057467 -2.974735
H -3.916796 -11.180990 -2.073729
H -1.572960 -11.012201 -1.209970
H 0.412091 -9.588687 -0.734485
H -1.508886 -6.194135 -2.111239
C 0.699129 1.924610 -5.906154
C 0.468824 3.110666 -5.842080
C 0.140293 4.474926 -5.734905
C -0.130859 5.236643 -6.858564
C -0.515426 6.577443 -6.745062
C -0.657446 7.170571 -5.516658
C -0.386082 6.429971 -4.346541
C -0.558872 6.964171 -3.055285
N -0.305646 6.275305 -1.962683
C 0.181935 5.012036 -2.053117
C 0.358133 4.391736 -3.256491
C 0.045297 5.076712 -4.448165
H -0.049781 4.786165 -7.836160
H -0.714094 7.141374 -7.643456
H -0.974682 8.197787 -5.433829
H -0.922489 7.980702 -2.927048
H 0.419311 4.531584 -1.105901
H 0.728742 3.381075 -3.314731
C 0.954365 0.541309 -5.962126
C 1.100699 -0.191598 -4.778058
C 1.342196 -1.545734 -4.826880
C 1.447191 -2.198805 -6.060392
C 1.299872 -1.466355 -7.244727
C 1.054592 -0.111890 -7.196095
H 1.026612 0.315423 -3.829083
H 1.465964 -2.111333 -3.917441
H 1.381843 -1.970232 -8.196265
H 0.942627 0.453084 -8.109395
C 1.729984 -3.576493 -6.119020
C 2.001247 -4.755179 -6.166348
C 2.405820 -6.097244 -6.280385
C 2.862942 -6.575832 -7.496031
C 3.342084 -7.883101 -7.622551
C 3.391323 -8.725909 -6.539669
C 2.927715 -8.286832 -5.286722
C 2.964515 -9.096437 -4.128739
C 2.478715 -8.615762 -2.947821
N 1.925097 -7.381917 -2.846127
C 1.894772 -6.587645 -3.898024
C 2.402625 -6.968851 -5.149664
H 2.859834 -5.923684 -8.355983
H 3.690443 -8.222049 -8.586322
H 3.783390 -9.726209 -6.635952
H 3.380509 -10.089362 -4.190402
H 2.513233 -9.204437 -2.032906
H 1.444955 -5.605427 -3.770048
Pd -2.807349 6.552350 -0.751378
Pd 2.392930 -6.295103 0.071875
C -1.912705 -1.857474 4.678467
C -1.492478 -2.990336 4.739858
C -1.033298 -4.320598 4.749438
C -1.514259 -5.237568 5.668230
C -1.100303 -6.574127 5.637501
C -0.223544 -7.020697 4.682064
C 0.293759 -6.116837 3.729812
C 1.158801 -6.520358 2.694637
N 1.642691 -5.678820 1.805803
C 1.347353 -4.356912 1.889858
C 0.495804 -3.867303 2.838086
C -0.087315 -4.745424 3.773928
H -2.223918 -4.916370 6.415556
H -1.492961 -7.259304 6.372936
H 0.075893 -8.056052 4.649444
H 1.447853 -7.563929 2.597737
H 1.832253 -3.719825 1.152736
H 0.254294 -2.817683 2.883090
C -2.400360 -0.540173 4.584328
C -3.332652 -0.061262 5.512045
C -3.809632 1.227039 5.412554
C -3.367454 2.064504 4.381019
C -2.438910 1.583179 3.450868
C -1.959266 0.297050 3.552304
H -3.672414 -0.706330 6.308618
H -4.525401 1.598797 6.130496
H -2.093682 2.234037 2.663822
H -1.238233 -0.073988 2.841337
C -3.834922 3.389960 4.305243
C -4.213013 4.538766 4.253893
C -4.612541 5.886442 4.296555
C -5.213159 6.388998 5.437835
C -5.552917 7.741362 5.538436
C -5.283569 8.616038 4.514831
C -4.684132 8.148824 3.331586
C -4.365213 8.996865 2.246791
C -3.803199 8.474714 1.118456
N -3.561700 7.147283 0.982666
C -3.822460 6.327274 1.981611
C -4.364683 6.766053 3.199532
H -5.410332 5.726720 6.266999
H -6.020272 8.097956 6.443658
H -5.525745 9.663342 4.605191
H -4.568154 10.053068 2.323637
H -3.524362 9.103247 0.274574
H -3.609628 5.271222 1.830266
C -4.638383 -3.340071 -1.092708
C -4.194994 -4.458781 -0.967748
C -3.650138 -5.740915 -0.763957
C -4.463266 -6.837713 -0.537943
C -3.916126 -8.098705 -0.273666
C -2.558439 -8.280827 -0.211035
C -1.694450 -7.189770 -0.445015
C -0.293762 -7.300295 -0.354622
N 0.514442 -6.285469 -0.578268
C 0.008213 -5.083561 -0.952721
C -1.336555 -4.862879 -1.039697
C -2.236352 -5.909412 -0.752959
H -5.535562 -6.715207 -0.557300
H -4.581466 -8.931195 -0.104702
H -2.142083 -9.249691 0.014015
H 0.164167 -8.248726 -0.083839
H 0.742226 -4.313919 -1.180897
H -1.725379 -3.897963 -1.323074
C -5.125705 -2.026867 -1.238266
C -6.430235 -1.797441 -1.689639
C -6.889664 -0.508807 -1.850455
C -6.057026 0.578751 -1.558146
C -4.759764 0.347560 -1.086464
C -4.298062 -0.939861 -0.931891
H -7.070995 -2.635555 -1.919878
H -7.892773 -0.330487 -2.208204
H -4.125318 1.186282 -0.849375
H -3.297976 -1.122925 -0.572087
C -6.523788 1.888811 -1.775522
C -6.918651 3.009649 -2.006335
C -7.424106 4.271586 -2.366125
C -8.697255 4.372156 -2.900486
C -9.204736 5.601662 -3.330802
C -8.447794 6.744677 -3.253893
C -7.150958 6.692666 -2.712382
C -6.312746 7.827047 -2.621328
C -5.069731 7.710963 -2.071115
N -4.609377 6.536066 -1.574922
C -5.353081 5.450798 -1.660036
C -6.631868 5.452551 -2.238168
H -9.303054 3.483752 -2.993658
H -10.202300 5.641816 -3.740637
H -8.834599 7.687968 -3.606186
H -6.664982 8.776051 -2.992638
H -4.390653 8.559157 -2.006299
H -4.941792 4.529845 -1.252067
C 1.734560 2.226435 -5.244471
C 1.325452 3.364063 -5.291285
C 0.873890 4.697474 -5.282919
C 1.407108 5.640289 -6.144239
C 0.999999 6.978473 -6.090045
C 0.075491 7.399108 -5.168761
C -0.499635 6.466897 -4.278662
C -1.422421 6.840565 -3.283122
N -1.964720 5.972009 -2.455741
C -1.673146 4.651773 -2.569711
C -0.767850 4.189171 -3.481239
C -0.123495 5.095241 -4.347835
H 2.154793 5.339269 -6.862201
H 1.436142 7.684959 -6.779303
H -0.219136 8.435005 -5.116774
H -1.710085 7.882792 -3.166852
H -2.209239 3.991154 -1.891991
H -0.533980 3.138950 -3.550135
C 2.192759 0.897109 -5.165729
C 2.022786 0.171865 -3.980126
C 2.452226 -1.133416 -3.898969
C 3.054570 -1.746787 -5.003426
C 3.237901 -1.016205 -6.184298
C 2.814277 0.292079 -6.263786
H 1.554943 0.647600 -3.132948
H 2.324453 -1.693344 -2.986822
H 3.708766 -1.487267 -7.034168
H 2.951433 0.853258 -7.176214
C 3.447132 -3.097537 -4.954481
C 3.748473 -4.269873 -4.936537
C 4.059604 -5.638837 -5.018685
C 4.580498 -6.153344 -6.193571
C 4.837717 -7.520531 -6.331562
C 4.563137 -8.397841 -5.311557
C 4.039232 -7.920481 -4.097003
C 3.717134 -8.770747 -3.014870
C 3.225549 -8.240965 -1.857614
N 3.056431 -6.905969 -1.692304
C 3.325922 -6.081869 -2.685484
C 3.803182 -6.524771 -3.928779
H 4.782490 -5.487341 -7.018472
H 5.245543 -7.885385 -7.261865
H 4.743128 -9.454854 -5.429072
H 3.860896 -9.834560 -3.117013
H 2.946291 -8.869203 -1.013576
H 3.171978 -5.019358 -2.509119
C 4.158586 3.580802 0.693105
C 3.719157 4.703057 0.586781
C 3.182270 5.990465 0.399925
C 4.004094 7.095126 0.255885
C 3.468936 8.364790 0.010614
C 2.115990 8.549030 -0.117166
C 1.243351 7.449425 0.027434
C -0.150163 7.561753 -0.139664
N -0.965803 6.537544 -0.004505
C -0.477825 5.321960 0.350349
C 0.860029 5.100308 0.508246
C 1.771013 6.159015 0.317416
H 5.074112 6.972369 0.328135
H 4.140395 9.203466 -0.091281
H 1.709965 9.525602 -0.327388
H -0.595614 8.518995 -0.398924
H -1.222398 4.541958 0.497562
H 1.237251 4.125520 0.772265
C 4.653414 2.267468 0.803087
C 3.765684 1.184830 0.823727
C 4.244421 -0.101801 0.922834
C 5.621685 -0.336618 1.007756
C 6.509743 0.745789 0.986072
C 6.031137 2.033183 0.883263
H 2.704670 1.369044 0.765545
H 3.563393 -0.937071 0.949703
H 7.572210 0.564339 1.052550
H 6.715972 2.867839 0.868209
C 6.117069 -1.647000 1.145803
C 6.538097 -2.772215 1.292928
C 7.074027 -4.045153 1.557946
C 8.376969 -4.161083 2.010415
C 8.913344 -5.405706 2.353722
C 8.157029 -6.548761 2.270340
C 6.831429 -6.481082 1.805763
C 5.993475 -7.615323 1.710544
C 4.722846 -7.483134 1.231177
N 4.233921 -6.291359 0.807160
C 4.976239 -5.205972 0.902937
C 6.281861 -5.224514 1.417516
H 8.982901 -3.273659 2.110582
H 9.933400 -5.457982 2.702745
H 8.566871 -7.504132 2.558294
H 6.367959 -8.577448 2.021626
H 4.044398 -8.331796 1.166711
H 4.542491 -4.271198 0.554456
