372
cid:69, pot: -238.17909047451334
Pd 2.360247 6.478773 1.282924
Pd -2.879306 -6.059065 -1.568055
C 4.107572 -3.366790 0.272262
C 3.649031 -4.466128 0.060142
C 3.067521 -5.732289 -0.137729
C 3.746875 -6.892022 0.193625
C 3.143606 -8.146771 0.051462
C 1.853349 -8.263773 -0.398627
C 1.127669 -7.106099 -0.751544
C -0.214762 -7.153399 -1.173830
N -0.893171 -6.074897 -1.503917
C -0.288972 -4.859822 -1.486361
C 1.000079 -4.701639 -1.065337
C 1.742548 -5.825675 -0.650378
H 4.755323 -6.825242 0.572964
H 3.705835 -9.029267 0.315339
H 1.385647 -9.231393 -0.486200
H -0.738059 -8.104635 -1.230683
H -0.900316 -4.026578 -1.827569
H 1.463150 -3.728491 -1.038252
C 4.620389 -2.080288 0.524932
C 5.916023 -1.920030 1.029694
C 6.411064 -0.659063 1.279115
C 5.620281 0.469967 1.032420
C 4.323029 0.308559 0.532239
C 3.829484 -0.951214 0.279433
H 6.526636 -2.790422 1.218318
H 7.412100 -0.534337 1.664252
H 3.720790 1.180617 0.334569
H 2.832987 -1.078108 -0.112882
C 6.144877 1.756251 1.259134
C 6.602726 2.864297 1.425913
C 7.215091 4.124296 1.548995
C 8.590903 4.210092 1.674101
C 9.234970 5.449972 1.722692
C 8.523337 6.620479 1.628687
C 7.122438 6.582889 1.511330
C 6.331114 7.748160 1.394396
C 4.973802 7.641658 1.304961
N 4.341017 6.443297 1.354604
C 5.045633 5.332081 1.438393
C 6.447930 5.327344 1.496706
H 9.174997 3.303729 1.722383
H 10.309472 5.478410 1.820839
H 9.025770 7.574903 1.643043
H 6.810892 8.713591 1.374520
H 4.337427 8.517381 1.190645
H 4.496916 4.393390 1.471767
C -0.501857 -2.490263 4.845934
C -0.907923 -3.600825 4.590259
C -1.332789 -4.897807 4.244360
C -1.205614 -5.953723 5.129839
C -1.571219 -7.253216 4.759622
C -2.047450 -7.522161 3.502203
C -2.201161 -6.471476 2.572515
C -2.644766 -6.686380 1.253673
N -2.794626 -5.707174 0.386607
C -2.559352 -4.424942 0.762585
C -2.096566 -4.112001 2.008548
C -1.869558 -5.138425 2.947780
H -0.809918 -5.772179 6.117593
H -1.460236 -8.051102 5.477580
H -2.307591 -8.528368 3.214767
H -2.872533 -7.692612 0.909906
H -2.766671 -3.667853 0.009499
H -1.898619 -3.089829 2.288657
C -0.035720 -1.188841 5.114727
C 0.095225 -0.737427 6.432791
C 0.530266 0.545065 6.684463
C 0.849458 1.402725 5.624151
C 0.738355 0.942730 4.307018
C 0.297392 -0.336592 4.054879
H -0.155451 -1.396630 7.250524
H 0.622185 0.897836 7.700879
H 0.997412 1.600227 3.492986
H 0.206797 -0.694351 3.041557
C 1.244206 2.726132 5.896148
C 1.540935 3.874482 6.138313
C 1.808284 5.207240 6.498515
C 1.813599 5.567245 7.835299
C 2.009104 6.895626 8.224543
C 2.183008 7.887485 7.291060
C 2.191436 7.568660 5.921426
C 2.346704 8.542713 4.909152
C 2.360794 8.164172 3.598426
N 2.257342 6.865322 3.223458
C 2.090284 5.929387 4.136860
C 2.027084 6.213759 5.509777
H 1.655141 4.809520 8.587337
H 2.008570 7.138566 9.276125
H 2.312614 8.914520 7.594164
H 2.449420 9.580107 5.184644
H 2.455825 8.890782 2.793528
H 2.008348 4.901384 3.789965
C -4.572866 3.835625 -0.832770
C -4.103832 4.933428 -0.636413
C -3.508156 6.195585 -0.451593
C -4.146763 7.355458 -0.854108
C -3.524702 8.602795 -0.725755
C -2.256286 8.710762 -0.215994
C -1.574310 7.552747 0.215025
C -0.256343 7.589902 0.708744
N 0.379575 6.511943 1.116948
C -0.249087 5.309563 1.111813
C -1.515833 5.160023 0.624530
C -2.209634 6.281380 0.126113
H -5.136067 7.294640 -1.281533
H -4.054526 9.485871 -1.048170
H -1.773011 9.671663 -0.138908
H 0.283097 8.532802 0.758545
H 0.320195 4.478980 1.523216
H -1.997454 4.195472 0.611946
C -5.092884 2.545169 -1.051031
C -4.224947 1.449024 -1.125922
C -4.725052 0.181685 -1.322252
C -6.104884 -0.020600 -1.440640
C -6.971590 1.078001 -1.380658
C -6.471048 2.347256 -1.190846
H -3.162833 1.609354 -1.030638
H -4.058989 -0.663666 -1.382352
H -8.035608 0.922838 -1.478750
H -7.140234 3.193298 -1.139624
C -6.635211 -1.316418 -1.584627
C -7.103364 -2.429856 -1.665228
C -7.726604 -3.690288 -1.689805
C -9.108107 -3.770438 -1.727877
C -9.761124 -5.005737 -1.685189
C -9.051721 -6.177195 -1.584817
C -7.646266 -6.145812 -1.549410
C -6.856875 -7.311929 -1.428304
C -5.496174 -7.212912 -1.414924
N -4.860169 -6.022417 -1.542722
C -5.561400 -4.909900 -1.637159
C -6.964767 -4.896130 -1.626190
H -9.688913 -2.862403 -1.782613
H -10.839661 -5.029388 -1.718564
H -9.559548 -7.127230 -1.530924
H -7.340792 -8.271914 -1.343966
H -4.859400 -8.088338 -1.300403
H -5.009070 -3.977640 -1.734393
C 0.246488 2.796351 -5.152415
C 0.668737 3.903253 -4.906753
C 1.107439 5.198527 -4.574443
C 1.051922 6.231442 -5.494416
C 1.432870 7.531346 -5.142785
C 1.850791 7.825671 -3.870125
C 1.926131 6.800161 -2.903712
C 2.300297 7.044173 -1.568412
N 2.371870 6.088958 -0.665705
C 2.121247 4.802073 -1.016241
C 1.722991 4.462895 -2.277302
C 1.580415 5.465079 -3.258344
H 0.703477 6.030528 -6.496124
H 1.380765 8.310192 -5.887957
H 2.122873 8.833036 -3.598356
H 2.536717 8.053714 -1.241410
H 2.257660 4.065465 -0.226811
H 1.508841 3.439214 -2.538829
C -0.253609 1.507341 -5.417287
C -0.276628 0.543536 -4.401840
C -0.772052 -0.715757 -4.653091
C -1.252519 -1.042911 -5.926355
C -1.230609 -0.078975 -6.941827
C -0.738231 1.182406 -6.689667
H 0.100960 0.796034 -3.423687
H -0.781548 -1.463616 -3.876615
H -1.600472 -0.331879 -7.924312
H -0.719885 1.925105 -7.473191
C -1.727139 -2.339366 -6.200893
C -2.108050 -3.462867 -6.441264
C -2.472951 -4.773059 -6.799124
C -2.565678 -5.119267 -8.136040
C -2.852683 -6.431641 -8.523130
C -3.032495 -7.421159 -7.588301
C -2.958160 -7.114182 -6.217959
C -3.117131 -8.086571 -5.204585
C -3.054069 -7.717320 -3.892603
N -2.871683 -6.427360 -3.515846
C -2.694745 -5.495196 -4.431291
C -2.702255 -5.773619 -5.806885
H -2.401396 -4.364907 -8.890211
H -2.917400 -6.664956 -9.575019
H -3.230655 -8.437345 -7.891098
H -3.284820 -9.115471 -5.480264
H -3.149168 -8.444540 -3.088299
H -2.548181 -4.474743 -4.083928
Pd 2.921313 6.186826 0.841295
Pd -2.609393 -6.422258 -0.947558
C 0.721375 -1.230402 -5.573824
C 0.273504 -2.343553 -5.728877
C -0.205729 -3.660446 -5.857965
C 0.050812 -4.407633 -6.994731
C -0.375856 -5.736722 -7.095572
C -1.040649 -6.345958 -6.062192
C -1.325925 -5.617690 -4.887632
C -1.961522 -6.197376 -3.772870
N -2.228861 -5.519722 -2.676660
C -1.929678 -4.197976 -2.604493
C -1.287080 -3.547817 -3.618570
C -0.933470 -4.252480 -4.787045
H 0.593529 -3.958488 -7.812658
H -0.161963 -6.286557 -7.999145
H -1.348555 -7.376680 -6.136306
H -2.245894 -7.246598 -3.788579
H -2.234389 -3.697124 -1.687620
H -1.038089 -2.501794 -3.541803
C 1.245999 0.060235 -5.371392
C 1.971602 0.697592 -6.384535
C 2.486302 1.958599 -6.179420
C 2.289748 2.609413 -4.955189
C 1.568269 1.969328 -3.940887
C 1.050602 0.710746 -4.146960
H 2.121762 0.196613 -7.329286
H 3.042273 2.452881 -6.962076
H 1.410881 2.477505 -3.003217
H 0.488030 0.218245 -3.369793
C 2.790944 3.910827 -4.764850
C 3.195860 5.040769 -4.607955
C 3.606148 6.382582 -4.513745
C 3.963069 7.073704 -5.658640
C 4.302823 8.428816 -5.606849
C 4.274290 9.120019 -4.420763
C 3.928135 8.456893 -3.229913
C 3.863499 9.111107 -1.978719
C 3.541154 8.403312 -0.857664
N 3.305382 7.068379 -0.892272
C 3.331895 6.426936 -2.043858
C 3.614213 7.066911 -3.260654
H 3.966639 6.559127 -6.607429
H 4.576191 8.935421 -6.519881
H 4.514312 10.171204 -4.388223
H 4.068220 10.168312 -1.923401
H 3.460161 8.881064 0.117083
H 3.133230 5.357527 -2.025268
C 4.570957 -3.601467 -0.831183
C 4.087341 -4.690555 -1.040283
C 3.484435 -5.929315 -1.330537
C 4.207905 -6.962888 -1.899346
C 3.590458 -8.170907 -2.243954
C 2.246539 -8.359005 -2.046707
C 1.474924 -7.333102 -1.460396
C 0.084657 -7.446620 -1.269120
N -0.636255 -6.493445 -0.717009
C -0.036808 -5.362334 -0.267212
C 1.300448 -5.140372 -0.431975
C 2.096879 -6.113213 -1.069440
H 5.262517 -6.830434 -2.087626
H 4.187195 -8.955168 -2.683391
H 1.771431 -9.283506 -2.333532
H -0.440290 -8.344041 -1.587883
H -0.689508 -4.650720 0.233564
H 1.760872 -4.229708 -0.083762
C 5.106017 -2.323307 -0.579800
C 6.481019 -2.153024 -0.383474
C 6.991513 -0.901985 -0.115494
C 6.139420 0.207193 -0.043540
C 4.767197 0.038598 -0.261262
C 4.255825 -1.212298 -0.522548
H 7.137841 -3.008626 -0.433940
H 8.051102 -0.770918 0.046061
H 4.115114 0.896011 -0.218635
H 3.198655 -1.347667 -0.687497
C 6.669472 1.470192 0.280888
C 7.128045 2.543353 0.602608
C 7.724927 3.736069 1.048232
C 9.084013 3.765213 1.310147
C 9.697061 4.914403 1.818013
C 8.965577 6.044008 2.090563
C 7.582873 6.063606 1.834693
C 6.768798 7.185893 2.109402
C 5.435484 7.144462 1.823304
N 4.855761 6.060588 1.250892
C 5.577276 4.986415 0.998471
C 6.948991 4.910990 1.285251
H 9.676674 2.881997 1.126792
H 10.759264 4.900571 2.008393
H 9.438105 6.922013 2.502086
H 7.211678 8.065938 2.547498
H 4.776333 7.982354 2.042931
H 5.069552 4.139235 0.542123
C -0.661911 1.120511 5.426416
C -0.227879 2.240600 5.570552
C 0.240191 3.563437 5.684472
C -0.078991 4.344819 6.781131
C 0.336069 5.679265 6.861075
C 1.054176 6.257977 5.846269
C 1.408466 5.492352 4.714741
C 2.108218 6.036889 3.621082
N 2.445023 5.323315 2.567323
C 2.155866 3.998365 2.523459
C 1.453579 3.380121 3.517950
C 1.026115 4.122862 4.637217
H -0.664634 3.919867 7.582101
H 0.070393 6.257090 7.732828
H 1.353307 7.292343 5.902828
H 2.387117 7.087943 3.618200
H 2.522635 3.465268 1.649156
H 1.217083 2.329693 3.462492
C -1.154756 -0.184105 5.230626
C -1.254320 -0.702721 3.933842
C -1.719056 -1.982827 3.733561
C -2.087805 -2.777239 4.825258
C -2.002180 -2.252766 6.121182
C -1.543415 -0.969504 6.321574
H -0.965678 -0.088108 3.096078
H -1.798626 -2.383800 2.736191
H -2.293108 -2.863252 6.962941
H -1.472929 -0.567474 7.321404
C -2.510680 -4.106967 4.640797
C -2.834047 -5.264538 4.496013
C -3.150074 -6.632604 4.417673
C -3.422249 -7.339924 5.576131
C -3.673769 -8.714650 5.540486
C -3.639421 -9.408969 4.356332
C -3.373468 -8.731743 3.152951
C -3.305212 -9.388544 1.903286
C -3.057633 -8.669452 0.770511
N -2.898662 -7.323215 0.793224
C -2.934835 -6.676913 1.941769
C -3.148403 -7.324219 3.168596
H -3.431347 -6.821041 6.522439
H -3.883848 -9.232693 6.463741
H -3.813151 -10.473325 4.335216
H -3.446925 -10.456588 1.858580
H -2.976254 -9.146882 -0.204428
H -2.798859 -5.597843 1.912585
C -4.254555 3.396540 0.438668
C -3.778665 4.492125 0.631226
C -3.187006 5.738754 0.907708
C -3.936101 6.793404 1.400646
C -3.334188 8.012928 1.730890
C -1.981112 8.192367 1.597772
C -1.182368 7.143497 1.094365
C 0.217110 7.246118 0.978817
N 0.963757 6.269281 0.508871
C 0.385988 5.121719 0.071868
C -0.959495 4.910523 0.166667
C -1.786833 5.910944 0.716065
H -4.999653 6.669407 1.537434
H -3.950923 8.814203 2.108001
H -1.519063 9.126760 1.873751
H 0.727620 8.153947 1.290555
H 1.065868 4.386757 -0.354813
H -1.404707 3.987109 -0.166957
C -4.789446 2.112315 0.223135
C -3.949437 1.060063 -0.161245
C -4.465737 -0.199385 -0.365348
C -5.834618 -0.436074 -0.194034
C -6.674733 0.615774 0.191383
C -6.157763 1.875366 0.399205
H -2.896337 1.246862 -0.299657
H -3.823748 -1.009470 -0.671629
H -7.730943 0.433042 0.322559
H -6.805978 2.686729 0.694807
C -6.375911 -1.712793 -0.436013
C -6.842491 -2.804355 -0.672265
C -7.449395 -4.023882 -1.021908
C -8.820647 -4.082015 -1.201111
C -9.443897 -5.260780 -1.621483
C -8.711661 -6.391495 -1.887670
C -7.316744 -6.382627 -1.709467
C -6.502039 -7.505463 -1.980085
C -5.156342 -7.436148 -1.765472
N -4.563565 -6.323398 -1.265905
C -5.285972 -5.247340 -1.024034
C -6.670864 -5.199266 -1.246632
H -9.414934 -3.198621 -1.024628
H -10.515510 -5.269187 -1.750479
H -9.193386 -7.292283 -2.234288
H -6.954235 -8.408633 -2.357575
H -4.497890 -8.274455 -1.985380
H -4.768556 -4.376463 -0.627509
