308
cid:69, pot: -219.68056988099102
Pd -0.334383 4.108737 0.986141
Pd -0.797166 -4.807012 -1.652585
C 4.826096 -3.437015 0.318478
C 4.592586 -4.535379 -0.131871
C 4.447504 -5.792611 -0.749448
C 5.540500 -6.636218 -0.836372
C 5.469460 -7.839524 -1.546093
C 4.322017 -8.202708 -2.206083
C 3.181755 -7.381801 -2.135853
C 1.979405 -7.682437 -2.814889
C 0.899806 -6.859329 -2.681033
N 0.921752 -5.771527 -1.872100
C 2.035759 -5.437877 -1.250181
C 3.220458 -6.181689 -1.367578
H 6.467429 -6.352797 -0.361770
H 6.341616 -8.473950 -1.589840
H 4.281844 -9.113074 -2.783337
H 1.929621 -8.561120 -3.437819
H -0.028668 -7.040983 -3.218445
H 2.008780 -4.555598 -0.615271
C 5.117601 -2.125639 0.751704
C 6.411768 -1.798649 1.169434
C 6.709601 -0.493478 1.515618
C 5.741572 0.494243 1.447953
C 4.442913 0.181997 1.038005
C 4.138214 -1.135786 0.701395
H 7.171864 -2.563531 1.211387
H 7.710316 -0.240524 1.831622
H 6.010361 1.512288 1.681591
H 3.134951 -1.412330 0.419763
C 3.408820 1.216688 0.943435
C 3.364907 2.308734 1.816203
C 2.335155 3.221892 1.716866
N 1.356588 3.091943 0.816413
C 1.398931 2.077062 -0.055871
C 2.405109 1.138052 -0.031623
H 4.111571 2.429975 2.583950
H 2.272913 4.083355 2.375373
H 0.588888 2.042115 -0.782939
H 2.429933 0.352613 -0.769521
C -1.202255 -4.363682 4.414405
C -1.304573 -5.445995 3.883576
C -1.557478 -6.722390 3.345294
C -1.833683 -7.777053 4.196853
C -2.208502 -9.029074 3.697791
C -2.346133 -9.238452 2.348244
C -2.064642 -8.198345 1.443729
C -2.214214 -8.338082 0.045505
C -1.895935 -7.298588 -0.778922
N -1.389662 -6.134246 -0.303920
C -1.268472 -5.952998 0.996759
C -1.624301 -6.934687 1.934706
H -1.774324 -7.626048 5.263796
H -2.413436 -9.829484 4.392216
H -2.671375 -10.194233 1.968309
H -2.584238 -9.267659 -0.356362
H -2.034443 -7.359179 -1.856215
H -0.860671 -5.002509 1.333300
C -1.182557 -3.089610 5.021819
C -1.338235 -2.973776 6.406939
C -1.400905 -1.719615 6.985787
C -1.316984 -0.577260 6.207853
C -1.154888 -0.676684 4.823610
C -1.077904 -1.940479 4.240765
H -1.417155 -3.862065 7.014654
H -1.527775 -1.630779 8.054013
H -1.412990 0.388466 6.678347
H -0.912086 -2.046714 3.180740
C -1.083107 0.521619 3.982224
C -0.506063 1.713926 4.431385
C -0.420629 2.795477 3.578713
N -0.859815 2.740971 2.318028
C -1.449219 1.622642 1.876671
C -1.588512 0.510025 2.674995
H -0.102956 1.789169 5.428030
H 0.016585 3.737525 3.896509
H -1.809601 1.649810 0.849282
H -2.098694 -0.362747 2.301042
C -5.955997 2.739321 -0.989691
C -5.723710 3.835371 -0.533267
C -5.580781 5.089519 0.091152
C -6.675839 5.929973 0.183802
C -6.607180 7.129506 0.900244
C -5.459945 7.491849 1.560949
C -4.317671 6.674334 1.484966
C -3.115285 6.974328 2.164196
C -2.033711 6.154630 2.024807
N -2.053924 5.070973 1.210239
C -3.167769 4.737944 0.587615
C -4.354175 5.478272 0.710143
H -7.602523 5.646751 -0.291320
H -7.480822 7.761377 0.948447
H -5.421370 8.399113 2.143185
H -3.066902 7.849890 2.791597
H -1.105211 6.335863 2.562166
H -3.139146 3.859132 -0.052115
C -6.245933 1.430002 -1.430006
C -7.537291 1.105887 -1.858272
C -7.833990 -0.197676 -2.211400
C -6.867406 -1.186722 -2.140327
C -5.571581 -0.877387 -1.719753
C -5.267980 0.438915 -1.376248
H -8.296381 1.871624 -1.902942
H -8.832612 -0.448504 -2.535546
H -7.135612 -2.203575 -2.379560
H -4.266488 0.713232 -1.086092
C -4.539006 -1.913201 -1.621712
C -4.489808 -3.001897 -2.498346
C -3.461237 -3.916021 -2.395493
N -2.488459 -3.790051 -1.488115
C -2.536495 -2.778621 -0.612118
C -3.541976 -1.839021 -0.639388
H -5.231306 -3.119830 -3.271570
H -3.394991 -4.775007 -3.057015
H -1.731438 -2.746968 0.120592
H -3.571490 -1.056775 0.101600
C 0.096690 3.663733 -5.081063
C 0.194563 4.746391 -4.549980
C 0.442706 6.023444 -4.011069
C 0.722252 7.077961 -4.861768
C 1.092353 8.330838 -4.361539
C 1.221996 8.541305 -3.011407
C 0.936972 7.501384 -2.107789
C 1.078844 7.642149 -0.708925
C 0.757961 6.602677 0.114459
N 0.256050 5.437163 -0.362382
C 0.141933 5.254936 -1.663631
C 0.501268 6.236692 -2.600251
H 0.669109 6.926084 -5.929027
H 1.300052 9.131078 -5.055383
H 1.543628 9.497790 -2.630284
H 1.445244 8.572630 -0.305570
H 0.890841 6.664255 1.192387
H -0.262374 4.303747 -2.001836
C 0.081934 2.389210 -5.687634
C 0.250471 2.272229 -7.071130
C 0.317428 1.017606 -7.648429
C 0.225212 -0.124215 -6.870555
C 0.050390 -0.023537 -5.487968
C -0.031061 1.240705 -4.906839
H 0.335916 3.160057 -7.678685
H 0.454174 0.927943 -8.715387
H 0.324769 -1.090279 -7.339317
H -0.206752 1.347935 -3.848458
C -0.029509 -1.221148 -4.646306
C -0.603165 -2.413628 -5.099286
C -0.695642 -3.494599 -4.246644
N -0.266609 -3.439324 -2.982535
C 0.319042 -2.320726 -2.536975
C 0.464797 -1.208589 -3.334830
H -0.998071 -2.489437 -6.099252
H -1.130499 -4.436824 -4.567207
H 0.670719 -2.346952 -1.506473
H 0.971484 -0.335404 -2.957324
Pd 0.472711 -4.732495 -1.938663
Pd -0.691096 3.972860 1.148383
C 0.983294 3.982533 -4.732019
C 0.852705 5.027967 -4.137378
C 0.845219 6.283097 -3.498782
C 1.167448 7.415800 -4.224714
C 1.288760 8.662485 -3.601955
C 1.124508 8.792497 -2.245409
C 0.784555 7.670112 -1.468438
C 0.629782 7.729364 -0.065004
C 0.269667 6.609902 0.626396
N 0.005400 5.434905 0.003638
C 0.173336 5.330300 -1.300184
C 0.599410 6.404297 -2.097375
H 1.343550 7.332364 -5.286207
H 1.538560 9.524980 -4.200946
H 1.255158 9.748272 -1.762630
H 0.802950 8.662423 0.446985
H 0.177849 6.611424 1.710565
H -0.046186 4.368225 -1.756854
C 1.228933 2.760006 -5.393607
C 1.646955 2.758934 -6.728336
C 1.963222 1.562527 -7.345130
C 1.875655 0.365996 -6.653778
C 1.454197 0.350402 -5.321786
C 1.122554 1.554482 -4.703046
H 1.728358 3.690857 -7.266345
H 2.292119 1.563014 -8.373300
H 2.169403 -0.548622 -7.144178
H 0.756843 1.567929 -3.688927
C 1.371384 -0.904067 -4.567912
C 1.024947 -2.116295 -5.173522
C 0.906689 -3.255390 -4.403761
N 1.097832 -3.240725 -3.081453
C 1.469374 -2.100870 -2.485477
C 1.627181 -0.928977 -3.190141
H 0.822167 -2.165026 -6.230949
H 0.643727 -4.213718 -4.842133
H 1.637853 -2.160076 -1.411126
H 1.961055 -0.035969 -2.687017
C -5.588860 2.162516 -1.998717
C -5.584801 3.249677 -1.467828
C -5.715440 4.473275 -0.783417
C -6.892666 5.191542 -0.893011
C -7.106668 6.347458 -0.134668
C -6.167797 6.784387 0.766140
C -4.950540 6.092417 0.903280
C -3.954745 6.471268 1.831739
C -2.783560 5.774157 1.893879
N -2.515186 4.744477 1.053990
C -3.432840 4.339046 0.197943
C -4.693600 4.947160 0.094522
H -7.664454 4.844653 -1.562938
H -8.036338 6.883778 -0.248840
H -6.351298 7.654753 1.376339
H -4.133982 7.308364 2.487168
H -2.011789 6.015187 2.621688
H -3.175557 3.507594 -0.454381
C -5.629627 0.856054 -2.531729
C -6.774008 0.410108 -3.200693
C -6.839495 -0.896695 -3.647759
C -5.786276 -1.769943 -3.434910
C -4.633767 -1.337542 -2.773928
C -4.561368 -0.016569 -2.334949
H -7.602021 1.084401 -3.356670
H -7.725664 -1.242273 -4.158111
H -5.880125 -2.795893 -3.754229
H -3.668370 0.355166 -1.858580
C -3.516739 -2.253125 -2.523129
C -3.183162 -3.281995 -3.409977
C -2.090241 -4.082547 -3.147940
N -1.318558 -3.899433 -2.072684
C -1.639235 -2.944715 -1.190312
C -2.726025 -2.120069 -1.373585
H -3.754543 -3.439873 -4.310039
H -1.806335 -4.893322 -3.812527
H -0.987218 -2.862719 -0.321837
H -2.977451 -1.383964 -0.627425
C -1.196837 -4.741182 3.943019
C -1.072519 -5.786150 3.346245
C -1.072639 -7.040435 2.706002
C -1.401565 -8.172104 3.430778
C -1.530645 -9.417389 2.806726
C -1.367348 -9.546821 1.450072
C -1.020678 -8.425715 0.674253
C -0.866216 -8.484417 -0.729226
C -0.499609 -7.366373 -1.419613
N -0.228608 -6.193554 -0.795693
C -0.395695 -6.089251 0.508347
C -0.827786 -7.161711 1.304498
H -1.576947 -8.088653 4.492382
H -1.785703 -10.278820 3.404782
H -1.503894 -10.501212 0.966211
H -1.044817 -9.415893 -1.242170
H -0.407796 -7.367527 -2.503711
H -0.170261 -5.129007 0.965874
C -1.435415 -3.518692 4.606969
C -1.842609 -3.517161 5.944992
C -2.152241 -2.320339 6.564599
C -2.068542 -1.123824 5.872645
C -1.657972 -1.108612 4.537379
C -1.332889 -2.313060 3.915873
H -1.921085 -4.449020 6.483574
H -2.472853 -2.320480 7.595349
H -2.357185 -0.208990 6.365523
H -0.975720 -2.326785 2.898664
C -1.579129 0.145752 3.782942
C -1.225813 1.357211 4.385940
C -1.111251 2.496225 3.615363
N -1.312129 2.481992 2.294393
C -1.690715 1.342805 1.701393
C -1.845554 0.171260 2.407139
H -1.014933 1.405587 5.441804
H -0.843032 3.454015 4.051796
H -1.867182 1.402378 0.628413
H -2.185298 -0.720817 1.906551
C 5.382872 -2.912668 1.187612
C 5.376529 -4.001529 0.660164
C 5.504551 -5.227345 -0.020826
C 6.682741 -5.944635 0.085603
C 6.893701 -7.103003 -0.669683
C 5.950759 -7.543487 -1.564471
C 4.732620 -6.852612 -1.698248
C 3.732848 -7.234763 -2.620877
C 2.561228 -6.538333 -2.680356
N 2.296063 -5.505868 -1.842835
C 3.217281 -5.097219 -0.992088
C 4.478803 -5.704654 -0.892278
H 7.457523 -5.594990 0.750753
H 7.824193 -7.638489 -0.558094
H 6.131775 -8.415881 -2.172507
H 3.909421 -8.074225 -3.274373
H 1.786455 -6.782072 -3.404063
H 2.962927 -4.263749 -0.341562
C 5.425232 -1.604507 1.716158
C 6.574385 -1.153945 2.373921
C 6.640565 0.154318 2.816708
C 5.583422 1.024589 2.610569
C 4.426424 0.587431 1.960685
C 4.353233 -0.734891 1.526247
H 7.405335 -1.825888 2.524545
H 7.530256 0.503358 3.318379
H 5.677481 2.051505 2.926022
H 3.457095 -1.110223 1.058721
C 3.305358 1.499908 1.716264
C 2.976467 2.530799 2.602546
C 1.880251 3.328642 2.346152
N 1.101077 3.141041 1.277145
C 1.416629 2.184061 0.395429
C 2.506070 1.361702 0.573229
H 3.554420 2.692294 3.497847
H 1.599616 4.140912 3.010406
H 0.758063 2.097953 -0.467832
H 2.753165 0.623397 -0.172116
