372
cid:69, pot: -253.98549001792512
Pd -0.573862 6.808801 -0.583733
Pd -0.491208 -7.032351 0.508999
C 4.738559 -1.458265 1.524223
C 4.741636 -2.660934 1.656048
C 4.689815 -4.053654 1.851285
C 5.693337 -4.718832 2.534497
C 5.609982 -6.094285 2.778873
C 4.520949 -6.820266 2.369006
C 3.478260 -6.180784 1.665278
C 2.312175 -6.857781 1.259565
N 1.338789 -6.263307 0.602690
C 1.453752 -4.957303 0.252108
C 2.530572 -4.203724 0.621586
C 3.568412 -4.789774 1.374142
H 6.549828 -4.165381 2.888674
H 6.413847 -6.579723 3.310553
H 4.451480 -7.875742 2.578401
H 2.181433 -7.911655 1.492326
H 0.632575 -4.555760 -0.338562
H 2.601713 -3.162123 0.352900
C 4.712423 -0.058761 1.373841
C 5.783561 0.722647 1.822396
C 5.750701 2.091942 1.676572
C 4.644358 2.710933 1.081795
C 3.571541 1.929175 0.637930
C 3.605794 0.560557 0.780187
H 6.637574 0.245396 2.279453
H 6.578595 2.695113 2.018239
H 2.725840 2.408581 0.171872
H 2.783817 -0.044783 0.432428
C 4.632580 4.107508 0.906965
C 4.631669 5.304859 0.729323
C 4.724022 6.683085 0.465308
C 5.946014 7.323498 0.577000
C 6.084699 8.675366 0.248818
C 5.016297 9.404106 -0.212486
C 3.752671 8.798587 -0.332068
C 2.615645 9.485603 -0.814672
C 1.413537 8.844105 -0.885784
N 1.257311 7.560619 -0.476872
C 2.299098 6.878446 -0.043716
C 3.587109 7.430740 0.032831
H 6.807034 6.765072 0.911361
H 7.052985 9.141738 0.348394
H 5.132216 10.440837 -0.486935
H 2.711170 10.513691 -1.125392
H 0.524056 9.336947 -1.274193
H 2.128498 5.851099 0.270606
C -0.433382 -1.181121 5.537680
C -0.372094 -2.385653 5.632293
C -0.248753 -3.786626 5.698497
C 0.134816 -4.417900 6.868784
C 0.316945 -5.805071 6.913470
C 0.140194 -6.577381 5.794307
C -0.260156 -5.973316 4.583229
C -0.418310 -6.702759 3.389405
N -0.797438 -6.142509 2.260029
C -1.094332 -4.819100 2.224334
C -0.944422 -4.016495 3.318811
C -0.486482 -4.568321 4.532490
H 0.304359 -3.829035 7.757427
H 0.614097 -6.262656 7.844448
H 0.302497 -7.642854 5.828494
H -0.218723 -7.771572 3.370488
H -1.460979 -4.444336 1.271221
H -1.168934 -2.962992 3.271850
C -0.510115 0.218041 5.397362
C -0.726056 1.034795 6.512933
C -0.822376 2.400537 6.361754
C -0.699255 2.980417 5.092775
C -0.462019 2.164023 3.981021
C -0.372252 0.798657 4.130693
H -0.825982 0.587812 7.490837
H -0.998946 3.030984 7.220448
H -0.354228 2.613771 3.007281
H -0.193058 0.165201 3.276501
C -0.850250 4.372312 4.947706
C -1.024344 5.564171 4.827031
C -1.307875 6.939939 4.761159
C -1.609079 7.633178 5.921038
C -1.961134 8.985564 5.883130
C -2.037367 9.663026 4.691219
C -1.734084 9.002083 3.487562
C -1.810707 9.634629 2.225976
C -1.488305 8.939870 1.096879
N -1.063885 7.652905 1.140519
C -0.998958 7.021624 2.296137
C -1.340730 7.632097 3.512803
H -1.579582 7.116676 6.868231
H -2.187842 9.493687 6.807932
H -2.329725 10.700928 4.663663
H -2.128002 10.663543 2.168585
H -1.558109 9.389768 0.108156
H -0.656508 5.988959 2.283020
C -5.735630 1.221441 -1.875249
C -5.726396 2.422383 -2.021440
C -5.658338 3.813381 -2.227652
C -6.614960 4.474433 -2.978002
C -6.509765 5.846737 -3.232955
C -5.445453 6.573084 -2.763858
C -4.453231 5.938359 -1.986371
C -3.315432 6.617034 -1.509938
N -2.391717 6.028564 -0.779546
C -2.535485 4.727781 -0.421421
C -3.586147 3.971822 -0.856264
C -4.567142 4.550872 -1.686670
H -7.449627 3.920122 -3.379478
H -7.276246 6.328760 -3.820024
H -5.357802 7.625712 -2.980929
H -3.165848 7.667820 -1.746601
H -1.763310 4.332050 0.234585
H -3.679426 2.934700 -0.576707
C -5.719228 -0.174670 -1.691026
C -4.511345 -0.825159 -1.411129
C -4.487826 -2.187128 -1.212923
C -5.672204 -2.929631 -1.282262
C -6.877881 -2.280687 -1.577078
C -6.900835 -0.918692 -1.782069
H -3.601901 -0.248393 -1.355234
H -3.559033 -2.690712 -0.999340
H -7.790585 -2.854431 -1.637268
H -7.831592 -0.418192 -2.004351
C -5.673132 -4.313612 -1.025900
C -5.691100 -5.495520 -0.764791
C -5.806276 -6.850706 -0.407127
C -7.047003 -7.463955 -0.437886
C -7.207600 -8.789661 -0.024448
C -6.141748 -9.518311 0.443172
C -4.860900 -8.939463 0.486814
C -3.725900 -9.626797 0.973618
C -2.507959 -9.011891 0.974773
N -2.335641 -7.755985 0.494023
C -3.373376 -7.074349 0.050386
C -4.674752 -7.599695 0.036910
H -7.904746 -6.904602 -0.778854
H -8.189857 -9.235224 -0.063971
H -6.273204 -10.534132 0.781086
H -3.835689 -10.633625 1.343893
H -1.618243 -9.504261 1.363290
H -3.188720 -6.069162 -0.322620
C -0.344398 0.953250 -5.593890
C -0.388111 2.157991 -5.696666
C -0.496280 3.558982 -5.775069
C -0.800860 4.187965 -6.970041
C -0.966538 5.576198 -7.032313
C -0.854791 6.352636 -5.907321
C -0.540705 5.750814 -4.670203
C -0.459334 6.483717 -3.470703
N -0.165822 5.924398 -2.315952
C 0.115251 4.598115 -2.254840
C 0.036376 3.793065 -3.354657
C -0.329376 4.344381 -4.599414
H -0.917952 3.596358 -7.865300
H -1.198886 6.032093 -7.982456
H -1.004435 7.419337 -5.956596
H -0.649933 7.554074 -3.468630
H 0.404274 4.224235 -1.274494
H 0.244043 2.737203 -3.289787
C -0.304012 -0.446980 -5.454157
C -0.109487 -1.018690 -4.190871
C -0.077346 -2.387173 -4.047311
C -0.234834 -3.216736 -5.163599
C -0.430427 -2.645347 -6.426965
C -0.466254 -1.275945 -6.570350
H 0.018901 -0.377103 -3.333552
H 0.082818 -2.830776 -3.077845
H -0.550970 -3.285529 -7.288169
H -0.615456 -0.835447 -7.544798
C -0.166972 -4.616409 -5.030399
C -0.079795 -5.818341 -4.916880
C 0.105236 -7.211184 -4.857126
C 0.320801 -7.925996 -6.022620
C 0.582342 -9.298947 -5.988894
C 0.652099 -9.976250 -4.796511
C 0.429384 -9.293649 -3.587358
C 0.501843 -9.925850 -2.325292
C 0.253833 -9.209191 -1.191048
N -0.094766 -7.899138 -1.229133
C -0.148940 -7.267939 -2.385388
C 0.125781 -7.901168 -3.607430
H 0.298176 -7.410808 -6.970719
H 0.745392 -9.823826 -6.917878
H 0.877228 -11.030931 -4.772978
H 0.756132 -10.972372 -2.271615
H 0.323874 -9.659818 -0.202702
H -0.429082 -6.216890 -2.368587
Pd -0.988014 6.458975 -1.587544
Pd 0.256592 -7.178163 0.705296
C 5.030437 -1.134893 1.080821
C 5.135273 -2.316848 1.316883
C 5.202419 -3.686279 1.634193
C 6.271615 -4.205293 2.343968
C 6.306972 -5.555747 2.709641
C 5.272861 -6.400245 2.395905
C 4.166305 -5.911687 1.669136
C 3.051493 -6.713379 1.357370
N 2.018676 -6.259711 0.679259
C 2.018284 -4.985243 0.212929
C 3.037075 -4.117874 0.484451
C 4.135445 -4.549424 1.255342
H 7.087036 -3.555699 2.623958
H 7.159221 -5.925856 3.258462
H 5.294965 -7.434979 2.698431
H 3.012909 -7.749357 1.684849
H 1.154438 -4.705130 -0.386790
H 3.016524 -3.102126 0.124051
C 4.886023 0.239015 0.809758
C 5.898554 1.140615 1.157724
C 5.750037 2.484325 0.894067
C 4.584066 2.957188 0.279375
C 3.569977 2.055559 -0.063757
C 3.719769 0.712254 0.196184
H 6.798511 0.775938 1.630132
H 6.532594 3.179959 1.158012
H 2.677942 2.422181 -0.545527
H 2.943156 0.014395 -0.073811
C 4.453681 4.327138 -0.016157
C 4.350443 5.499983 -0.297441
C 4.323421 6.852078 -0.683163
C 5.490690 7.595643 -0.662698
C 5.510622 8.919578 -1.111299
C 4.376265 9.516373 -1.603684
C 3.164484 8.803381 -1.633923
C 1.964752 9.351274 -2.141976
C 0.818263 8.611795 -2.122526
N 0.776935 7.361595 -1.598957
C 1.880329 6.806430 -1.137854
C 3.119871 7.464702 -1.146595
H 6.401682 7.140029 -0.305610
H 6.439151 9.469023 -1.080451
H 4.400603 10.530424 -1.970791
H 1.968702 10.351866 -2.543787
H -0.116855 8.995222 -2.526849
H 1.801606 5.800828 -0.730402
C -0.059909 -0.915726 5.200798
C 0.102302 -2.098263 5.398317
C 0.341882 -3.473322 5.582928
C 0.801001 -3.964931 6.792372
C 1.097561 -5.323485 6.952657
C 0.961113 -6.204242 5.910517
C 0.486647 -5.744691 4.663391
C 0.363597 -6.588052 3.542715
N -0.084355 -6.163049 2.380048
C -0.489846 -4.876066 2.237511
C -0.383159 -3.969603 3.253193
C 0.144453 -4.372490 4.496733
H 0.940441 -3.287397 7.621048
H 1.451158 -5.670839 7.911082
H 1.211221 -7.245954 6.032901
H 0.650013 -7.634859 3.611312
H -0.906355 -4.618431 1.266257
H -0.694555 -2.945838 3.120949
C -0.254486 0.454653 4.941227
C -0.513029 1.347740 5.987039
C -0.724615 2.682466 5.720110
C -0.676739 3.154719 4.402461
C -0.396916 2.263989 3.359811
C -0.191944 0.929084 3.625382
H -0.554953 0.983331 7.002650
H -0.934087 3.370830 6.525272
H -0.347318 2.632277 2.347837
H 0.020495 0.238326 2.824841
C -0.944828 4.511589 4.140912
C -1.218951 5.670174 3.921804
C -1.616061 7.007414 3.744294
C -1.948455 7.775042 4.847394
C -2.411338 9.086125 4.701814
C -2.568482 9.646202 3.458038
C -2.237603 8.906894 2.308400
C -2.392924 9.416143 0.999106
C -2.038641 8.651509 -0.073794
N -1.508916 7.411638 0.069829
C -1.367614 6.893268 1.273770
C -1.732398 7.580542 2.441727
H -1.856345 7.349147 5.834847
H -2.659282 9.654931 5.584817
H -2.945775 10.650768 3.348380
H -2.794956 10.407069 0.861320
H -2.166308 9.004273 -1.095577
H -0.941715 5.894345 1.340956
C -5.698908 0.383338 -2.239070
C -5.791660 1.563337 -2.489589
C -5.842698 2.931311 -2.818230
C -6.866284 3.444059 -3.595698
C -6.879838 4.792170 -3.972292
C -5.869136 5.640395 -3.598914
C -4.811658 5.158976 -2.797641
C -3.723666 5.966450 -2.414857
N -2.739277 5.521360 -1.662589
C -2.767838 4.250384 -1.188425
C -3.761776 3.376975 -1.525604
C -4.804605 3.799204 -2.374944
H -7.660888 2.791088 -3.923339
H -7.695732 5.156900 -4.577030
H -5.873033 6.672971 -3.909335
H -3.666143 7.000508 -2.746400
H -1.951895 3.977925 -0.522752
H -3.763422 2.364860 -1.154084
C -5.563755 -0.984924 -1.934367
C -4.300743 -1.509045 -1.633333
C -4.161007 -2.841608 -1.317877
C -5.281486 -3.679775 -1.288344
C -6.542500 -3.158307 -1.604152
C -6.681815 -1.826324 -1.926325
H -3.440867 -0.858582 -1.653926
H -3.189589 -3.248102 -1.087730
H -7.405959 -3.806435 -1.588022
H -7.655124 -1.423797 -2.164861
C -5.163062 -5.030934 -0.912348
C -5.078125 -6.182497 -0.548770
C -5.073746 -7.505168 -0.071136
C -6.260178 -8.216078 -0.012895
C -6.302261 -9.508269 0.518965
C -5.170348 -10.104480 1.017749
C -3.940818 -9.423419 0.974139
C -2.742976 -9.971483 1.486498
C -1.580025 -9.263324 1.399201
N -1.521950 -8.045543 0.806091
C -2.621470 -7.491609 0.334515
C -3.875205 -8.118533 0.404058
H -7.168114 -7.759907 -0.376737
H -7.245151 -10.032770 0.546534
H -5.210523 -11.093385 1.446625
H -2.761620 -10.946771 1.946134
H -0.644715 -9.646276 1.803690
H -2.528166 -6.512129 -0.129863
C -0.384528 0.216987 -6.072438
C -0.529409 1.400358 -6.278591
C -0.754139 2.775571 -6.475753
C -1.134883 3.268991 -7.711871
C -1.415530 4.628414 -7.890210
C -1.344045 5.508561 -6.840941
C -0.955167 5.046612 -5.565435
C -0.908789 5.887819 -4.437322
N -0.545659 5.459061 -3.247009
C -0.155175 4.170338 -3.078472
C -0.190997 3.266606 -4.101164
C -0.627367 3.673583 -5.378317
H -1.221977 2.592351 -8.548411
H -1.704821 4.977574 -8.869503
H -1.581986 6.551223 -6.978723
H -1.186735 6.935364 -4.523060
H 0.184494 3.909779 -2.077874
H 0.104196 2.240755 -3.950483
C -0.226081 -1.157443 -5.812376
C 0.041753 -1.596717 -4.510108
C 0.189451 -2.939957 -4.248716
C 0.076967 -3.875749 -5.283532
C -0.191922 -3.436843 -6.585755
C -0.343352 -2.093022 -6.846966
H 0.135195 -0.873018 -3.716007
H 0.406225 -3.280957 -3.249254
H -0.277716 -4.159004 -7.384067
H -0.549065 -1.754604 -7.851470
C 0.262606 -5.248044 -5.030730
C 0.450785 -6.424153 -4.815381
C 0.751029 -7.786798 -4.639650
C 0.999747 -8.583172 -5.744073
C 1.374047 -9.922305 -5.598245
C 1.524737 -10.482738 -4.353757
C 1.272469 -9.714962 -3.202884
C 1.423643 -10.224223 -1.893098
C 1.141765 -9.431354 -0.819008
N 0.685828 -8.162087 -0.961304
C 0.555209 -7.642898 -2.166150
C 0.854945 -8.358582 -3.335655
H 0.914584 -8.158192 -6.732429
H 1.559865 -10.513261 -6.482161
H 1.836348 -11.509702 -4.244828
H 1.764262 -11.238013 -1.755606
H 1.269722 -9.784852 0.202433
H 0.189963 -6.620405 -2.233097
