336
cid:47, pot: -291.9745322647536
C -1.138093 -0.778138 4.233510
C -2.423139 -1.462714 4.240040
C -1.087710 0.610543 4.254425
C 0.137089 1.277187 4.287547
H -1.991010 1.201124 4.259865
C 1.314624 0.539114 4.289351
C 1.279821 -0.855254 4.268572
H 2.277500 1.025643 4.321100
C 0.052100 -1.505629 4.235657
C 2.514168 -1.626386 4.311561
H -0.007861 -2.583221 4.225462
C 0.185941 2.731118 4.350402
H 2.408369 -2.708754 4.138877
H -3.306439 -0.823896 4.084828
H 1.181764 3.182493 4.220207
C -2.678502 -3.280890 0.003674
C -2.785302 -3.937504 1.298836
C -1.753803 -3.730856 -0.931200
C -1.668129 -3.136131 -2.190035
H -1.094235 -4.556043 -0.710198
C -2.511926 -2.076766 -2.501735
C -3.445035 -1.614206 -1.573686
H -2.474285 -1.599992 -3.469194
C -3.519012 -2.216739 -0.323500
C -4.354811 -0.530751 -1.918044
H -4.234611 -1.885693 0.413517
C -0.726306 -3.636695 -3.181199
H -4.950488 -0.123304 -1.086455
H -1.989569 -4.661031 1.534968
H -0.611803 -3.020724 -4.086621
C 4.372984 -0.886909 0.150291
C 4.946518 -0.667495 1.470464
C 4.335168 0.150516 -0.773740
C 3.824359 -0.056633 -2.055037
H 4.711617 1.131255 -0.526385
C 3.340842 -1.312827 -2.400741
C 3.372160 -2.363741 -1.483952
H 2.945325 -1.506320 -3.386052
C 3.884189 -2.142455 -0.210955
C 2.901946 -3.688873 -1.862456
H 3.927788 -2.936961 0.518289
C 3.823926 1.021744 -3.033474
H 2.816322 -4.418647 -1.042518
H 5.166497 0.380235 1.727973
H 3.267275 0.824726 -3.962818
C -1.228260 4.022554 0.149595
C -1.754181 4.393107 1.455828
C -2.072382 3.482949 -0.813529
C -1.589672 3.160079 -2.081793
H -3.118425 3.315749 -0.607349
C -0.248066 3.373284 -2.374658
C 0.611310 3.914038 -1.418063
H 0.154004 3.139600 -3.348595
C 0.116178 4.230965 -0.158746
C 2.007157 4.173601 -1.741350
H 0.754366 4.656641 0.600364
C -2.485822 2.633050 -3.101281
H 2.650901 4.453464 -0.892968
H -2.780209 4.056351 1.671113
H -2.002187 2.260760 -4.017662
C -3.795771 -3.337163 4.460450
C -3.826487 -4.392798 3.336704
N -2.514975 -2.703808 4.440519
N -3.745580 -3.711330 2.083312
C -5.143970 -5.170926 3.390501
H -2.975169 -5.081105 3.488183
C -5.329861 -5.838721 4.747475
H -5.143866 -5.918016 2.593899
H -5.962380 -4.475301 3.197083
C -5.296873 -4.796431 5.860066
H -4.530217 -6.565677 4.907655
H -6.280408 -6.375636 4.764521
C -3.987509 -4.018230 5.818294
H -5.403554 -5.282033 6.832169
H -6.134441 -4.106198 5.735368
H -3.144088 -4.689548 5.988351
H -3.971567 -3.255332 6.599574
H -4.615206 -2.618134 4.279408
C 4.813931 -1.881805 4.614662
C 5.784728 -1.367274 3.532476
N 3.626659 -1.088530 4.560287
N 5.201071 -1.622109 2.253285
C 7.114270 -2.120741 3.626573
H 5.949556 -0.288036 3.703672
C 7.734640 -1.964994 5.009508
H 7.790403 -1.737672 2.859178
H 6.928194 -3.174725 3.412979
C 6.774726 -2.470717 6.081080
H 7.958496 -0.911233 5.191159
H 8.673567 -2.520567 5.054652
C 5.448753 -1.724632 5.999068
H 7.212207 -2.332589 7.071862
H 6.600351 -3.539382 5.936615
H 5.602121 -0.660752 6.188141
H 4.751352 -2.101355 6.750382
H 4.607742 -2.948605 4.412610
C -0.754244 4.846701 4.645082
C -1.644727 5.443420 3.536484
N -0.844828 3.422589 4.569730
N -1.084835 5.081273 2.272666
C -1.661534 6.970247 3.648912
H -2.667290 5.044250 3.664793
C -2.157826 7.412377 5.020027
H -2.302693 7.373615 2.862251
H -0.648734 7.338912 3.477367
C -1.279863 6.820846 6.117607
H -3.188182 7.076881 5.159375
H -2.148578 8.502594 5.078999
C -1.258981 5.300652 6.017459
H -1.654908 7.118289 7.098925
H -0.262766 7.206169 6.015466
H -2.263114 4.899028 6.164603
H -0.611993 4.875936 6.788133
H 0.279366 5.203939 4.485608
C 0.795183 -5.192341 -4.024599
C 2.199005 -5.301853 -3.395766
N -0.106105 -4.722203 -3.020462
N 2.639129 -3.984603 -3.059231
C 3.176351 -5.904656 -4.408496
H 2.127437 -5.953424 -2.506062
C 2.700671 -7.273264 -4.880072
H 4.161409 -5.982098 -3.943239
H 3.258836 -5.221363 -5.255529
C 1.311314 -7.167098 -5.499630
H 2.667503 -7.959339 -4.030614
H 3.406829 -7.675291 -5.609442
C 0.329055 -6.571763 -4.498406
H 0.963413 -8.153820 -5.811747
H 1.357306 -6.530746 -6.386498
H 0.238119 -7.222151 -3.626771
H -0.661443 -6.472878 -4.947670
H 0.855823 -4.498916 -4.882940
C -5.388423 0.942177 -3.404384
C -4.586741 2.126278 -3.981995
N -4.470278 -0.109688 -3.100503
N -3.737268 2.632904 -2.950881
C -5.544550 3.237061 -4.421684
H -4.009443 1.759910 -4.850226
C -6.542944 2.722742 -5.451412
H -4.960058 4.061879 -4.834980
H -6.069441 3.607568 -3.539452
C -7.334495 1.550011 -4.882570
H -6.007635 2.398750 -6.346888
H -7.221094 3.528875 -5.738606
C -6.390894 0.436439 -4.445378
H -8.029761 1.167736 -5.632641
H -7.919063 1.889269 -4.024272
H -5.833444 0.055792 -5.302995
H -6.954072 -0.394919 -4.016005
H -5.924174 1.295731 -2.504802
C 4.441702 3.127463 -3.827647
C 3.811611 4.390099 -3.205527
N 4.447613 2.099060 -2.835724
N 2.439203 4.108989 -2.923665
C 3.882811 5.550935 -4.201368
H 4.378093 4.642055 -2.290658
C 5.322473 5.828468 -4.615981
H 3.440386 6.436821 -3.740719
H 3.281900 5.292021 -5.074806
C 5.947843 4.580059 -5.228851
H 5.901230 6.131465 -3.740250
H 5.344908 6.650448 -5.334309
C 5.885965 3.418810 -4.244230
H 6.987260 4.775549 -5.499931
H 5.407177 4.313516 -6.139968
H 6.461840 3.653511 -3.347330
H 6.312005 2.517242 -4.689659
H 3.843138 2.844730 -4.712556
C -1.207023 0.209803 -3.984653
C -2.661192 0.272616 -4.023121
C -0.560921 -1.019995 -4.024008
C 0.832092 -1.091511 -4.026794
H -1.119855 -1.942167 -4.067374
C 1.574667 0.082183 -3.979583
C 0.940146 1.323881 -3.939724
H 2.653688 0.059964 -3.986947
C -0.448471 1.379499 -3.937433
C 1.720580 2.553109 -3.931272
H -0.968521 2.325040 -3.913587
C 1.505996 -2.379715 -4.109116
H 1.153405 3.478677 -3.746495
H -3.184967 -0.688763 -3.906026
H 2.595788 -2.360448 -3.953169
C -3.775218 1.686800 0.228593
C -4.125325 2.267862 -1.059697
C -3.157720 2.466211 1.199530
C -2.852542 1.932700 2.451758
H -2.914669 3.500874 1.012190
C -3.162559 0.604928 2.720401
C -3.782357 -0.189635 1.755799
H -2.944940 0.165034 3.681569
C -4.080539 0.355602 0.512750
C -4.142172 -1.568606 2.054631
H -4.565512 -0.231709 -0.251878
C -2.242779 2.763602 3.480249
H -4.483824 -2.170507 1.198185
H -3.715237 3.270051 -1.259231
H -1.894278 2.233082 4.379919
C 3.619622 2.575656 0.277173
C 4.262016 2.661198 -1.026629
C 4.012559 1.598769 1.184390
C 3.432908 1.530308 2.451228
H 4.781514 0.883722 0.935207
C 2.446098 2.444887 2.799087
C 2.041312 3.430888 1.899190
H 1.983129 2.421900 3.773724
C 2.627984 3.486899 0.640440
C 1.035946 4.412444 2.281310
H 2.340755 4.241913 -0.075357
C 3.875978 0.531203 3.413361
H 0.662308 5.055751 1.469734
H 4.919132 1.818362 -1.292013
H 3.267530 0.443332 4.326835
C 0.692144 -4.268586 0.024142
C 0.408399 -4.794195 -1.303767
C -0.324323 -4.172456 0.966977
C -0.058038 -3.707504 2.254856
H -1.334793 -4.467623 0.729281
C 1.236757 -3.328629 2.588234
C 2.267305 -3.419303 1.652330
H 1.475694 -2.970853 3.577954
C 1.987061 -3.884577 0.373126
C 3.630351 -3.059738 2.017145
H 2.763914 -3.972357 -0.370895
C -1.117270 -3.646721 3.252128
H 4.351231 -3.011104 1.186225
H -0.657118 -4.927508 -1.547408
H -0.863395 -3.127146 4.189080
C -4.703643 1.376280 -4.260958
C -5.213590 2.284392 -3.123610
N -3.275768 1.357521 -4.208472
N -4.875100 1.670799 -1.878253
C -6.736330 2.418786 -3.209047
H -4.740134 3.276539 -3.237195
C -7.161147 2.977514 -4.561499
H -7.077555 3.070801 -2.402103
H -7.177927 1.433097 -3.052490
C -6.655194 2.082184 -5.687393
H -6.750789 3.982495 -4.684932
H -8.249717 3.051877 -4.601733
C -5.139453 1.944496 -5.614283
H -6.938772 2.500424 -6.655299
H -7.114801 1.094955 -5.600135
H -4.665343 2.918432 -5.747063
H -4.777287 1.284751 -6.405638
H -5.135770 0.369421 -4.117141
C 3.690385 3.784192 -4.155600
C 4.762898 3.709846 -3.049908
N 2.961687 2.555036 -4.151403
N 4.097002 3.653053 -1.786848
C 5.637957 4.965656 -3.089659
H 5.381894 2.812566 -3.231221
C 6.296521 5.130457 -4.453769
H 6.395311 4.891163 -2.306288
H 5.009752 5.829792 -2.866985
C 5.237373 5.201306 -5.548567
H 6.957960 4.281917 -4.643294
H 6.903849 6.037923 -4.460215
C 4.362609 3.954066 -5.520653
H 5.714377 5.292436 -6.526491
H 4.614946 6.085714 -5.394428
H 4.965060 3.066132 -5.720035
H 3.588484 4.013083 -6.288759
H 3.038765 4.651567 -3.944905
C 1.579638 -4.685064 -4.464934
C 1.009144 -5.637471 -3.394747
N 0.880715 -3.442110 -4.371948
N 1.328123 -5.103618 -2.108209
C 1.656507 -7.018373 -3.529805
H -0.082228 -5.715420 -3.550523
C 1.431905 -7.593951 -4.922586
H 1.234659 -7.680145 -2.770391
H 2.724896 -6.918326 -3.330629
C 1.993098 -6.651908 -5.982323
H 0.361281 -7.732361 -5.090586
H 1.912812 -8.571384 -4.997016
C 1.352561 -5.274901 -5.859490
H 1.806244 -7.055263 -6.979526
H 3.074166 -6.563139 -5.852641
H 0.277180 -5.342182 -6.033404
H 1.770051 -4.591728 -6.602421
H 2.662110 -4.565314 -4.277043
C -1.563071 4.800076 4.395225
C -0.330351 5.521801 3.814179
N -2.149148 4.014481 3.355542
N 0.643521 4.533185 3.473105
C 0.266747 6.459641 4.866773
H -0.655896 6.102522 2.932080
C -0.764488 7.475493 5.342456
H 1.132050 6.967215 4.435089
H 0.616843 5.856131 5.706037
C -1.985412 6.763335 5.914812
H -1.071275 8.102880 4.502365
H -0.318537 8.122989 6.100194
C -2.590430 5.829796 4.873500
H -2.732726 7.494402 6.229622
H -1.689426 6.185338 6.793360
H -2.933365 6.400708 4.008924
H -3.450996 5.300953 5.288838
H -1.228549 4.177693 5.244936
C -4.471712 -3.383151 3.484925
C -3.250599 -4.120461 4.071176
N -4.091617 -2.030240 3.226488
N -2.241999 -4.182652 3.061035
C -3.644126 -5.547315 4.463315
H -2.908599 -3.564571 4.962958
C -4.790251 -5.542494 5.467254
H -2.770278 -6.050004 4.883405
H -3.936757 -6.083992 3.559083
C -5.997522 -4.811294 4.889977
H -4.468419 -5.043673 6.384333
H -5.059807 -6.569862 5.720497
C -5.618069 -3.388117 4.499957
H -6.806875 -4.786978 5.622489
H -6.358025 -5.346140 4.008301
H -5.299912 -2.827514 5.380750
H -6.475172 -2.869824 4.064550
H -4.781065 -3.908738 2.563385
C 5.324630 -1.122359 4.196653
C 5.316716 -2.515824 3.536084
N 4.908412 -0.165593 3.220432
N 3.964549 -2.847064 3.213764
C 5.859613 -3.558899 4.516779
H 5.957450 -2.473697 2.636638
C 7.267779 -3.198956 4.974058
H 5.854300 -4.536019 4.029164
H 5.185785 -3.608447 5.373808
C 7.277787 -1.820041 5.624961
H 7.940737 -3.198631 4.113347
H 7.626676 -3.950011 5.680723
C 6.742883 -0.773001 4.655823
H 8.293031 -1.555102 5.926883
H 6.654123 -1.837839 6.521746
H 7.384203 -0.711712 3.774795
H 6.726988 0.211657 5.127897
H 4.642371 -1.149787 5.065550
