308
cid:69, pot: -201.3243038764112
Pd -0.158448 4.089771 -1.969249
Pd 1.099162 -4.119507 2.237151
C 5.523705 -0.200964 3.802876
C 5.558554 -1.343890 4.198161
C 5.748391 -2.678875 4.604190
C 6.868693 -3.010095 5.345194
C 7.155532 -4.341345 5.664867
C 6.350981 -5.362080 5.223378
C 5.194482 -5.071933 4.476825
C 4.340227 -6.076113 3.967917
C 3.217536 -5.726313 3.276425
N 2.859647 -4.431193 3.095464
C 3.649024 -3.465611 3.524011
C 4.857074 -3.716220 4.193608
H 7.540186 -2.229249 5.667912
H 8.037134 -4.561756 6.247330
H 6.594896 -6.390298 5.439888
H 4.588666 -7.112926 4.128857
H 2.558207 -6.473525 2.839579
H 3.324538 -2.441958 3.353436
C 5.530895 1.102260 3.260731
C 6.560895 1.990108 3.588018
C 6.605301 3.236449 2.990789
C 5.643893 3.612801 2.068128
C 4.605707 2.739072 1.735205
C 4.552586 1.487544 2.346398
H 7.318843 1.695310 4.297355
H 7.404218 3.918684 3.238909
H 5.725381 4.573283 1.584305
H 3.741133 0.809000 2.137946
C 3.588303 3.112475 0.748120
C 3.146123 4.430569 0.595401
C 2.144741 4.714767 -0.310458
N 1.562818 3.763046 -1.045909
C 1.996829 2.500363 -0.946295
C 3.005009 2.143542 -0.079706
H 3.559723 5.223020 1.197563
H 1.780823 5.727485 -0.457388
H 1.502492 1.776286 -1.592330
H 3.355723 1.124711 -0.047975
C -1.462243 -0.135939 6.076344
C -1.278077 -1.277842 6.431017
C -1.215105 -2.609761 6.883695
C -1.684349 -2.921523 8.147171
C -1.750878 -4.248293 8.585764
C -1.383870 -5.283095 7.762023
C -0.889735 -5.013271 6.472747
C -0.522525 -6.031904 5.564741
C -0.022406 -5.701403 4.339107
N 0.182508 -4.413035 3.970669
C -0.180142 -3.433972 4.776415
C -0.760298 -3.663341 6.033745
H -2.019334 -2.128843 8.798429
H -2.119672 -4.453423 9.579139
H -1.471457 -6.307120 8.089668
H -0.646285 -7.064293 5.850023
H 0.234859 -6.459364 3.602408
H 0.000146 -2.415864 4.438861
C -1.766703 1.166895 5.626316
C -2.411585 2.067771 6.479990
C -2.780977 3.313511 6.007132
C -2.524317 3.676214 4.695732
C -1.875157 2.789648 3.832668
C -1.490203 1.538805 4.312264
H -2.624878 1.783346 7.498917
H -3.284619 4.005862 6.664467
H -2.861996 4.636470 4.339233
H -0.951708 0.850823 3.680489
C -1.612095 3.149375 2.436098
C -1.334485 4.463172 2.044703
C -1.044824 4.735886 0.723405
N -1.003265 3.776866 -0.205968
C -1.301414 2.517489 0.137437
C -1.619383 2.172178 1.431384
H -1.317989 5.261410 2.768583
H -0.829790 5.745114 0.384547
H -1.275908 1.786758 -0.669734
H -1.888384 1.155724 1.668691
C -4.579817 0.169168 -3.538364
C -4.617758 1.313849 -3.928071
C -4.811761 2.650231 -4.327645
C -5.935742 2.982130 -5.062907
C -6.226858 4.314138 -5.375780
C -5.422683 5.334650 -4.933257
C -4.262560 5.043964 -4.192640
C -3.408286 6.047815 -3.683149
C -2.282087 5.697614 -2.997458
N -1.920941 4.402488 -2.822926
C -2.709971 3.436962 -3.252360
C -3.921131 3.687747 -3.916328
H -6.606840 2.201177 -5.386075
H -7.111205 4.535040 -5.953681
H -5.669586 6.363259 -5.144484
H -3.659349 7.084745 -3.839108
H -1.622680 6.444498 -2.560356
H -2.382541 2.413293 -3.087196
C -4.583213 -1.136525 -3.002256
C -5.607111 -2.028028 -3.338294
C -5.648140 -3.277202 -2.746781
C -4.689171 -3.652818 -1.821125
C -3.657139 -2.775410 -1.479368
C -3.607354 -1.520978 -2.084960
H -6.363233 -1.734006 -4.049909
H -6.442407 -3.962354 -3.001613
H -4.768239 -4.615757 -1.341902
H -2.800378 -0.839254 -1.869397
C -2.642281 -3.147916 -0.489399
C -2.194094 -4.464410 -0.340612
C -1.194975 -4.747466 0.568123
N -0.620557 -3.796041 1.309968
C -1.060893 -2.535249 1.214165
C -2.067403 -2.179680 0.345206
H -2.601225 -5.256334 -0.947822
H -0.826470 -5.759071 0.712057
H -0.572917 -1.811532 1.865392
H -2.423309 -1.162639 0.316880
C 2.427378 0.112726 -5.802191
C 2.238953 1.253689 -6.157822
C 2.171268 2.585035 -6.611477
C 2.643331 2.898240 -7.873578
C 2.704980 4.224927 -8.312900
C 2.330232 5.258461 -7.491114
C 1.833108 4.987143 -6.203305
C 1.458413 6.004586 -5.297117
C 0.956235 5.672662 -4.072751
N 0.756135 4.383621 -3.703906
C 1.125657 3.405637 -4.507945
C 1.708603 3.636943 -5.763690
H 2.984292 2.106615 -8.523200
H 3.076159 4.431133 -9.305195
H 2.413977 6.282643 -7.819147
H 1.578193 7.037457 -5.582717
H 0.693419 6.430027 -3.337425
H 0.949271 2.387044 -4.170363
C 2.736182 -1.188413 -5.350266
C 3.392564 -2.085210 -6.199422
C 3.765440 -3.329018 -5.724302
C 3.501030 -3.693885 -4.414986
C 2.840496 -2.811300 -3.556509
C 2.451950 -1.562557 -4.038511
H 3.611918 -1.799044 -7.216602
H 4.277903 -4.018187 -6.378188
H 3.841433 -4.652229 -4.056332
H 1.904756 -0.877873 -3.410561
C 2.569716 -3.172813 -2.161863
C 2.296628 -4.488093 -1.772324
C 2.000368 -4.762539 -0.452871
N 1.948074 -3.803900 0.476308
C 2.241218 -2.542840 0.134887
C 2.565081 -2.195628 -1.157096
H 2.288994 -5.286329 -2.496472
H 1.788523 -5.772907 -0.115341
H 2.206422 -1.812123 0.941820
H 2.829534 -1.177715 -1.392921
Pd 1.262606 -3.929415 2.518328
Pd -0.565658 4.162860 -1.705422
C 4.876197 4.369484 1.074204
C 4.436219 5.355901 0.529241
C 3.954456 6.581492 0.030199
C 4.732161 7.718571 0.156893
C 4.241531 8.974366 -0.215975
C 2.960662 9.119872 -0.687462
C 2.137471 7.989928 -0.844250
C 0.801137 8.073463 -1.296274
C 0.065535 6.935664 -1.455062
N 0.590166 5.704704 -1.236475
C 1.821707 5.587273 -0.779732
C 2.643584 6.696240 -0.524328
H 5.727849 7.636556 0.565084
H 4.878074 9.839099 -0.105790
H 2.572466 10.094334 -0.939213
H 0.374135 9.040755 -1.507779
H -0.976801 6.966513 -1.765612
H 2.199830 4.581234 -0.614705
C 5.340824 3.245949 1.791421
C 6.568749 3.301258 2.458792
C 6.979716 2.226366 3.225318
C 6.186017 1.097926 3.343584
C 4.959520 1.025573 2.678344
C 4.550305 2.103203 1.894833
H 7.184084 4.184177 2.378934
H 7.924509 2.272311 3.745473
H 6.509194 0.290972 3.982090
H 3.627488 2.058605 1.339152
C 4.097379 -0.153246 2.804743
C 4.616007 -1.443651 2.953600
C 3.757721 -2.522616 3.010470
N 2.432817 -2.380841 2.911582
C 1.910925 -1.152184 2.808957
C 2.702110 -0.026578 2.766212
H 5.680427 -1.607377 2.996591
H 4.126277 -3.537302 3.130003
H 0.824096 -1.100660 2.761336
H 2.250089 0.950896 2.718350
C 3.195430 0.788400 -5.116714
C 2.797959 1.851999 -5.534509
C 2.290268 3.012648 -6.149181
C 2.691697 3.333075 -7.433689
C 2.119329 4.407944 -8.122218
C 1.117763 5.156049 -7.555612
C 0.685102 4.874240 -6.246897
C -0.360331 5.585820 -5.616106
C -0.711929 5.281181 -4.333501
N -0.055613 4.338601 -3.613451
C 0.901903 3.629265 -4.178503
C 1.300119 3.819876 -5.510834
H 3.447456 2.733517 -7.917580
H 2.459863 4.630129 -9.122034
H 0.652562 5.960675 -8.103076
H -0.874225 6.362474 -6.159395
H -1.536104 5.783076 -3.831238
H 1.399222 2.881822 -3.564470
C 3.577049 -0.495092 -4.669922
C 4.388429 -1.301879 -5.474127
C 4.690534 -2.588656 -5.068135
C 4.193372 -3.088702 -3.876530
C 3.386795 -2.292757 -3.059187
C 3.092925 -0.990828 -3.461104
H 4.766815 -0.919794 -6.409776
H 5.311317 -3.213239 -5.692397
H 4.407322 -4.110131 -3.604036
H 2.507034 -0.341082 -2.830928
C 2.836222 -2.811717 -1.803603
C 3.526663 -3.736224 -1.013082
C 2.982389 -4.152464 0.184639
N 1.812296 -3.687349 0.631572
C 1.115568 -2.829713 -0.124690
C 1.584481 -2.384530 -1.339875
H 4.492051 -4.107311 -1.316123
H 3.489171 -4.872806 0.820181
H 0.157884 -2.508026 0.282075
H 0.983734 -1.721068 -1.940490
C -4.181269 -4.133563 -0.257317
C -3.738015 -5.121553 0.282087
C -3.253168 -6.348735 0.774114
C -4.028411 -7.486923 0.641098
C -3.534950 -8.743811 1.006565
C -2.253737 -8.889060 1.477015
C -1.433035 -7.758233 1.640214
C -0.096538 -7.841343 2.091799
C 0.636737 -6.702869 2.256857
N 0.109503 -5.471876 2.044953
C -1.122440 -5.354465 1.589046
C -1.942036 -6.463850 1.327788
H -5.024336 -7.404669 0.233553
H -4.169504 -9.609175 0.891350
H -1.863258 -9.864051 1.723077
H 0.332561 -8.808827 2.297966
H 1.679045 -6.733367 2.567282
H -1.502679 -4.348329 1.429898
C -4.649489 -3.007796 -0.968406
C -5.882547 -3.059210 -1.626462
C -6.297421 -1.981762 -2.387483
C -5.502433 -0.854542 -2.509239
C -4.270803 -0.786029 -1.853396
C -3.857736 -1.866146 -1.075343
H -6.498967 -3.941150 -1.544004
H -7.246201 -2.024728 -2.900521
H -5.828934 -0.045704 -3.143542
H -2.930380 -1.824567 -0.526934
C -3.407403 0.391455 -1.983363
C -3.924814 1.683078 -2.125024
C -3.065070 2.760801 -2.185158
N -1.739657 2.616554 -2.095777
C -1.219318 1.386554 -2.000548
C -2.012059 0.262236 -1.955350
H -4.989219 1.848841 -2.160013
H -3.432747 3.776469 -2.299220
H -0.132336 1.333028 -1.960788
H -1.561345 -0.715998 -1.913772
C -2.479325 -0.543271 5.942802
C -2.084992 -1.608998 6.358237
C -1.580417 -2.772371 6.970389
C -1.978819 -3.091744 8.256174
C -1.409160 -4.169708 8.941929
C -0.413134 -4.922111 8.371288
C 0.016279 -4.641434 7.061368
C 1.056368 -5.357051 6.426597
C 1.405369 -5.053053 5.143231
N 0.751096 -4.106975 4.425873
C -0.201529 -3.393775 4.994432
C -0.596279 -3.583700 6.328027
H -2.730145 -2.488907 8.743063
H -1.747227 -4.390985 9.942808
H 0.050178 -5.729307 8.916564
H 1.568592 -6.136664 6.967673
H 2.225779 -5.558218 4.638087
H -0.697396 -2.643619 4.382932
C -2.856680 0.742085 5.497937
C -3.657466 1.554120 6.307598
C -3.955352 2.842270 5.902721
C -3.464367 3.338647 4.706911
C -2.668351 2.537401 3.884438
C -2.378924 1.234189 4.285063
H -4.030892 1.174879 7.246428
H -4.567905 3.470757 6.531080
H -3.674471 4.360855 4.435137
H -1.801506 0.580535 3.651152
C -2.123623 3.052518 2.624649
C -2.814136 3.980340 1.838048
C -2.275081 4.393300 0.636856
N -1.110234 3.921973 0.182910
C -0.413471 3.060665 0.934891
C -0.877263 2.618174 2.153032
H -3.775661 4.356610 2.147185
H -2.781964 5.116040 0.004014
H 0.539848 2.733355 0.522102
H -0.276770 1.951347 2.750059
