372
cid:69, pot: -244.24105044419872
Pd 0.070588 6.907328 -1.198429
Pd -0.033550 -6.793818 1.047930
C 4.664665 -0.993940 2.981775
C 4.641486 -2.181646 3.211158
C 4.549658 -3.555413 3.502371
C 5.331118 -4.132145 4.488779
C 5.195266 -5.485805 4.816935
C 4.268016 -6.276150 4.187176
C 3.454800 -5.727888 3.172553
C 2.451933 -6.471538 2.521458
N 1.692768 -5.962206 1.574562
C 1.888921 -4.685170 1.159260
C 2.815350 -3.870922 1.744634
C 3.609966 -4.362224 2.800151
H 6.051730 -3.525483 5.016040
H 5.825152 -5.901807 5.588115
H 4.152437 -7.313341 4.458428
H 2.271000 -7.507218 2.798137
H 1.259403 -4.357988 0.333961
H 2.949029 -2.852209 1.418230
C 4.669125 0.387678 2.711551
C 5.568018 1.235752 3.368741
C 5.565015 2.587420 3.103606
C 4.660709 3.121899 2.177609
C 3.758911 2.273796 1.524480
C 3.764232 0.922564 1.786524
H 6.266639 0.823571 4.081513
H 6.261174 3.241721 3.606808
H 3.070745 2.687672 0.805185
H 3.075460 0.265805 1.279295
C 4.685746 4.499113 1.888158
C 4.723703 5.677952 1.615938
C 4.873603 7.033101 1.271204
C 6.011712 7.718731 1.659134
C 6.224086 9.043991 1.267898
C 5.318447 9.699615 0.470827
C 4.142206 9.046807 0.060945
C 3.176853 9.656995 -0.771814
C 2.046657 8.974136 -1.115326
N 1.794546 7.722861 -0.657395
C 2.681982 7.110556 0.101451
C 3.893998 7.707689 0.481332
H 6.751645 7.216154 2.263211
H 7.123197 9.547222 1.589387
H 5.496793 10.714436 0.151609
H 3.345690 10.659680 -1.130638
H 1.294857 9.406177 -1.773406
H 2.439992 6.106519 0.443054
C -1.416686 -0.562971 5.382827
C -1.373627 -1.753645 5.592704
C -1.261406 -3.140331 5.809106
C -1.210570 -3.664248 7.089000
C -1.036026 -5.037028 7.299754
C -0.890228 -5.900953 6.244952
C -0.945694 -5.407915 4.923694
C -0.761771 -6.234467 3.798839
N -0.819031 -5.777925 2.565389
C -1.105812 -4.471593 2.337169
C -1.270847 -3.580295 3.358383
C -1.161196 -4.019255 4.693496
H -1.298067 -3.001625 7.936625
H -1.003637 -5.409626 8.311943
H -0.734585 -6.954675 6.412851
H -0.555602 -7.294552 3.926392
H -1.198170 -4.185471 1.291747
H -1.482648 -2.541483 3.162191
C -1.463631 0.817503 5.108384
C -1.986222 1.712989 6.048181
C -2.048704 3.058683 5.760800
C -1.584881 3.539604 4.529821
C -1.042882 2.645454 3.599494
C -0.986283 1.299807 3.883601
H -2.348503 1.342108 6.995427
H -2.460926 3.749398 6.481204
H -0.674215 3.019669 2.658160
H -0.572758 0.606534 3.168486
C -1.701822 4.910108 4.231061
C -1.845991 6.082514 3.966338
C -2.112041 7.439042 3.708429
C -2.727759 8.212282 4.677767
C -3.067189 9.545563 4.429822
C -2.817076 10.123515 3.209644
C -2.187547 9.379042 2.196199
C -1.918184 9.906698 0.912997
C -1.290583 9.135058 -0.020909
N -0.883746 7.869705 0.246824
C -1.135096 7.334526 1.425210
C -1.804777 8.028528 2.444843
H -2.956579 7.773796 5.637031
H -3.544808 10.118063 5.210186
H -3.099306 11.146174 3.014744
H -2.216065 10.917244 0.683440
H -1.088461 9.502611 -1.025352
H -0.793535 6.315442 1.594456
C -4.485860 1.074443 -3.377121
C -4.446869 2.259679 -3.616738
C -4.336390 3.631373 -3.913860
C -5.054199 4.200149 -4.951350
C -4.894409 5.550524 -5.283375
C -4.007278 6.345153 -4.603701
C -3.262975 5.805887 -3.532686
C -2.306837 6.555927 -2.821760
N -1.615763 6.056841 -1.818591
C -1.841728 4.784694 -1.404415
C -2.724946 3.963714 -2.045015
C -3.443369 4.443662 -3.158901
H -5.740766 3.589566 -5.517853
H -5.473040 5.959910 -6.097056
H -3.872081 7.379473 -4.877072
H -2.106691 7.588818 -3.096742
H -1.277398 4.466938 -0.530479
H -2.882941 2.949625 -1.714657
C -4.509050 -0.301416 -3.077443
C -3.419929 -0.889059 -2.422499
C -3.440433 -2.229565 -2.110377
C -4.553216 -3.012359 -2.438734
C -5.636083 -2.427369 -3.107232
C -5.613163 -1.087357 -3.425699
H -2.566250 -0.281170 -2.168387
H -2.602479 -2.684943 -1.608046
H -6.491736 -3.032691 -3.366609
H -6.450576 -0.635805 -3.936639
C -4.613088 -4.370953 -2.075748
C -4.692372 -5.528378 -1.730075
C -4.890265 -6.853861 -1.303866
C -6.068963 -7.506594 -1.621729
C -6.326164 -8.799714 -1.157072
C -5.424721 -9.454827 -0.354659
C -4.210729 -8.834076 -0.010520
C -3.248479 -9.444312 0.825735
C -2.083520 -8.793000 1.108846
N -1.795868 -7.574396 0.588868
C -2.676511 -6.963331 -0.178857
C -3.919020 -7.529031 -0.504287
H -6.803929 -7.003514 -2.231313
H -7.255464 -9.277887 -1.426643
H -5.635704 -10.444269 0.019306
H -3.447653 -10.421539 1.235878
H -1.331528 -9.224554 1.767054
H -2.404616 -5.985585 -0.570928
C 1.724752 0.682742 -5.436362
C 1.700835 1.873533 -5.649251
C 1.606565 3.259748 -5.873175
C 1.638479 3.781924 -7.154838
C 1.484592 5.154889 -7.378010
C 1.274676 6.021330 -6.335819
C 1.240027 5.529862 -5.013488
C 0.980712 6.357881 -3.904565
N 0.948674 5.901571 -2.670388
C 1.213254 4.593892 -2.421921
C 1.448055 3.701982 -3.428544
C 1.435590 4.140886 -4.768079
H 1.778236 3.117705 -7.994170
H 1.519792 5.526332 -8.390625
H 1.135356 7.075478 -6.514799
H 0.787820 7.418452 -4.045915
H 1.223482 4.308355 -1.371796
H 1.638740 2.661709 -3.219623
C 1.736934 -0.699993 -5.172364
C 1.579894 -1.163168 -3.860346
C 1.582823 -2.514230 -3.597645
C 1.746830 -3.434359 -4.639538
C 1.902868 -2.971544 -5.951899
C 1.896340 -1.619670 -6.215521
H 1.461044 -0.451806 -3.058504
H 1.472809 -2.874178 -2.587381
H 2.030319 -3.681567 -6.755429
H 2.018291 -1.262863 -7.227285
C 1.787218 -4.816188 -4.374304
C 1.849915 -6.001950 -4.139434
C 2.023136 -7.379095 -3.912969
C 2.558282 -8.176987 -4.909356
C 2.812053 -9.533956 -4.688513
C 2.555584 -10.111916 -3.469673
C 2.001785 -9.342877 -2.430692
C 1.728284 -9.870283 -1.148203
C 1.170570 -9.074059 -0.190810
N 0.834871 -7.782861 -0.434375
C 1.096732 -7.247475 -1.610413
C 1.703651 -7.966698 -2.651663
H 2.793970 -7.739664 -5.867491
H 3.229791 -10.125498 -5.488930
H 2.774457 -11.153741 -3.295653
H 1.966787 -10.900663 -0.938000
H 0.968786 -9.442361 0.813399
H 0.813880 -6.207808 -1.760591
Pd 0.007672 -6.151720 3.292634
Pd 0.139638 6.112373 -3.215231
C -1.534390 3.758858 3.933918
C -1.489733 4.834419 3.381733
C -1.372386 6.071005 2.720203
C -1.376233 7.262941 3.424200
C -1.199630 8.487453 2.769924
C -0.994425 8.541683 1.414955
C -0.987954 7.349531 0.659918
C -0.735104 7.331848 -0.725169
N -0.729069 6.221072 -1.431217
C -1.015726 5.035616 -0.836027
C -1.246709 4.940006 0.506170
C -1.206675 6.099693 1.306451
H -1.511811 7.245384 4.494989
H -1.213343 9.396623 3.351074
H -0.837568 9.485943 0.918513
H -0.525372 8.257355 -1.255669
H -1.046678 4.172989 -1.498805
H -1.455013 3.989726 0.970531
C -1.571641 2.499051 4.561177
C -1.731684 2.402123 5.948322
C -1.763070 1.167058 6.557221
C -1.631821 0.001041 5.792950
C -1.466869 0.099064 4.406504
C -1.439265 1.333021 3.797353
H -1.834694 3.301107 6.537643
H -1.891089 1.091207 7.626720
H -1.375781 -0.801183 3.820418
H -1.319678 1.411209 2.728420
C -1.697495 -1.258115 6.418504
C -1.782069 -2.342731 6.949352
C -1.979888 -3.572095 7.602961
C -2.511940 -3.592935 8.880581
C -2.790046 -4.801140 9.526602
C -2.561270 -6.004067 8.905313
C -2.011548 -6.032500 7.611219
C -1.765890 -7.233983 6.908543
C -1.210586 -7.191361 5.662966
N -0.851496 -6.023593 5.074576
C -1.086989 -4.880295 5.687532
C -1.688939 -4.809874 6.953455
H -2.726136 -2.660069 9.379462
H -3.204505 -4.778927 10.522965
H -2.798954 -6.933977 9.397689
H -2.023414 -8.176097 7.365442
H -1.029865 -8.096427 5.085786
H -0.785878 -3.967990 5.177159
C 4.644954 2.693472 2.032728
C 4.626810 3.782520 1.506074
C 4.540799 5.056359 0.912605
C 5.282632 6.121927 1.391640
C 5.147519 7.400884 0.839081
C 4.261646 7.640396 -0.179874
C 3.493228 6.578656 -0.703200
C 2.536975 6.765388 -1.719578
N 1.823253 5.775568 -2.213484
C 2.024484 4.507689 -1.774103
C 2.905743 4.223556 -0.770450
C 3.648045 5.264577 -0.176861
H 5.968878 5.964403 2.209841
H 5.744336 8.206935 1.237019
H 4.145688 8.631784 -0.587795
H 2.355973 7.757978 -2.125221
H 1.442198 3.737668 -2.275301
H 3.043985 3.213243 -0.420156
C 4.643459 1.416706 2.626900
C 5.740745 0.979157 3.377025
C 5.738916 -0.280307 3.934934
C 4.637763 -1.127881 3.760025
C 3.532190 -0.680789 3.027468
C 3.536323 0.575129 2.464294
H 6.592088 1.630356 3.508063
H 6.589242 -0.622798 4.505596
H 2.680230 -1.330007 2.905533
H 2.688152 0.922681 1.896002
C 4.672019 -2.429988 4.293615
C 4.728565 -3.561931 4.719030
C 4.900040 -4.878773 5.181568
C 6.073954 -5.230815 5.825429
C 6.304766 -6.546487 6.237891
C 5.381213 -7.534235 5.999641
C 4.171076 -7.222888 5.354385
C 3.186758 -8.194184 5.062132
C 2.027191 -7.822626 4.446790
N 1.765692 -6.532007 4.123621
C 2.667354 -5.599913 4.361008
C 3.906383 -5.879418 4.957849
H 6.825901 -4.477162 6.002967
H 7.231069 -6.783413 6.738432
H 5.571535 -8.552470 6.300478
H 3.365077 -9.224091 5.326788
H 1.258619 -8.548355 4.187186
H 2.416031 -4.578812 4.081828
C 1.412138 -3.846333 -3.935300
C 1.348728 -4.919989 -3.381224
C 1.213208 -6.151956 -2.713499
C 1.135253 -7.342534 -3.414599
C 0.937760 -8.558836 -2.750509
C 0.795673 -8.604786 -1.387382
C 0.878667 -7.413783 -0.634597
C 0.700536 -7.386798 0.761757
N 0.783453 -6.278130 1.466749
C 1.092235 -5.106389 0.856254
C 1.254050 -5.018800 -0.496739
C 1.117633 -6.173994 -1.293021
H 1.219258 -7.330261 -4.490661
H 0.884576 -9.467358 -3.330317
H 0.622393 -9.541569 -0.882406
H 0.477261 -8.303223 1.302886
H 1.204836 -4.247975 1.514710
H 1.483729 -4.077866 -0.970338
C 1.483222 -2.582770 -4.553045
C 1.031023 -1.447735 -3.869132
C 1.111840 -0.206199 -4.458047
C 1.653663 -0.069115 -5.741208
C 2.092073 -1.206655 -6.430858
C 2.005298 -2.450061 -5.844517
H 0.617586 -1.557890 -2.879259
H 0.762580 0.668941 -3.934591
H 2.503808 -1.101753 -7.423512
H 2.348107 -3.326127 -6.374844
C 1.795363 1.199729 -6.333647
C 1.961052 2.289706 -6.833644
C 2.251102 3.519522 -7.450927
C 2.862647 3.534949 -8.692773
C 3.225594 4.738742 -9.303964
C 3.003570 5.942445 -8.681642
C 2.379272 5.976867 -7.422056
C 2.138239 7.179201 -6.719200
C 1.514170 7.143731 -5.506414
N 1.084637 5.983482 -4.951918
C 1.309122 4.839073 -5.566822
C 1.972681 4.759916 -6.800980
H 3.069567 2.600564 -9.191701
H 3.699186 4.711885 -10.273445
H 3.304018 6.868105 -9.146794
H 2.454600 8.116002 -7.149453
H 1.333530 8.048574 -4.928751
H 0.949927 3.933013 -5.083329
C -4.637509 -2.607226 -1.737252
C -4.635700 -3.691868 -1.201148
C -4.568099 -4.963426 -0.601853
C -5.373496 -6.002848 -1.034700
C -5.261952 -7.281655 -0.477198
C -4.336006 -7.549190 0.498395
C -3.498843 -6.515952 0.970748
C -2.496242 -6.734989 1.934717
N -1.714915 -5.772505 2.377090
C -1.886396 -4.500658 1.935856
C -2.810545 -4.187303 0.981040
C -3.628847 -5.200418 0.441460
H -6.093795 -5.823862 -1.818512
H -5.910034 -8.066124 -0.836664
H -4.239393 -8.541290 0.909670
H -2.334142 -7.730556 2.340332
H -1.239184 -3.754158 2.392274
H -2.924846 -3.176170 0.625008
C -4.616983 -1.344413 -2.359086
C -3.691716 -0.377172 -1.948083
C -3.661777 0.856273 -2.558123
C -4.558691 1.153647 -3.590751
C -5.483398 0.186209 -4.002700
C -5.511175 -1.049421 -3.394864
H -3.006702 -0.606378 -1.147277
H -2.957869 1.607058 -2.237139
H -6.175860 0.416281 -4.798780
H -6.225378 -1.794750 -3.711524
C -4.558402 2.425089 -4.194901
C -4.574525 3.528233 -4.692732
C -4.698834 4.818019 -5.239382
C -5.832404 5.152157 -5.959934
C -6.018905 6.447609 -6.451527
C -5.091393 7.432808 -6.217762
C -3.919042 7.137122 -5.499577
C -2.932132 8.106620 -5.210061
C -1.807154 7.747909 -4.526310
N -1.580752 6.469934 -4.133007
C -2.488718 5.541979 -4.362729
C -3.697337 5.812173 -5.023048
H -6.588837 4.402224 -6.133480
H -6.915262 6.671907 -7.009469
H -5.249768 8.436974 -6.578579
H -3.080416 9.125041 -5.531817
H -1.039084 8.474230 -4.267075
H -2.267018 4.531420 -4.026577
