308
cid:69, pot: -177.5744850684705
Pd -0.593666 4.877817 1.195558
Pd 1.256764 -4.049306 -0.688593
C 6.148350 -0.556487 -1.809152
C 6.177503 -1.739288 -2.061886
C 6.262816 -3.074715 -2.500564
C 7.426035 -3.517737 -3.104322
C 7.508386 -4.798454 -3.660809
C 6.425320 -5.641684 -3.653977
C 5.225220 -5.238373 -3.040694
C 4.065355 -6.045566 -3.024214
C 2.942078 -5.607431 -2.386059
N 2.909583 -4.428740 -1.716881
C 3.959808 -3.631473 -1.739476
C 5.144663 -3.958969 -2.417278
H 8.278205 -2.857865 -3.160399
H 8.433344 -5.110909 -4.121125
H 6.480243 -6.614556 -4.116694
H 4.079662 -7.001739 -3.522343
H 2.021114 -6.186828 -2.385620
H 3.887822 -2.694354 -1.192777
C 6.076352 0.838222 -1.604277
C 7.181347 1.645450 -1.893512
C 7.077311 3.018484 -1.767116
C 5.889147 3.603062 -1.362413
C 4.778415 2.809600 -1.064480
C 4.886113 1.424679 -1.178912
H 8.105125 1.193986 -2.221179
H 7.928528 3.641326 -1.996840
H 5.820819 4.678326 -1.313541
H 4.057497 0.786338 -0.917670
C 3.506888 3.410596 -0.651081
C 3.448772 4.585082 0.106167
C 2.225195 5.074287 0.515620
N 1.079330 4.451359 0.225361
C 1.106801 3.347711 -0.532176
C 2.287254 2.811481 -0.994465
H 4.351235 5.097460 0.397147
H 2.143545 5.985649 1.100749
H 0.138724 2.902899 -0.757979
H 2.273611 1.941784 -1.631227
C 3.514619 -2.516880 4.763266
C 3.606597 -3.659029 4.375083
C 3.648536 -5.030662 4.059239
C 4.217503 -5.917790 4.955362
C 4.169844 -7.298278 4.733800
C 3.526937 -7.815145 3.636723
C 2.943769 -6.950693 2.692349
C 2.242447 -7.417190 1.557686
C 1.725452 -6.524838 0.664405
N 1.901549 -5.187721 0.801294
C 2.519845 -4.712251 1.864752
C 3.035989 -5.539920 2.874023
H 4.691584 -5.538580 5.847629
H 4.627273 -7.960069 5.453294
H 3.459574 -8.881442 3.487982
H 2.119062 -8.478325 1.411746
H 1.148333 -6.848333 -0.199135
H 2.635939 -3.633084 1.934840
C 3.317392 -1.208597 5.255298
C 3.776438 -0.865697 6.531193
C 3.507638 0.391632 7.039901
C 2.783803 1.312696 6.301727
C 2.324022 0.987206 5.023077
C 2.606214 -0.275209 4.503957
H 4.329569 -1.585757 7.114428
H 3.856377 0.653418 8.027294
H 2.549664 2.270525 6.738708
H 2.299198 -0.538756 3.504597
C 1.540160 1.942880 4.234875
C 1.750718 3.323385 4.313556
C 1.017502 4.173350 3.511024
N 0.112989 3.720221 2.638263
C -0.132346 2.405630 2.571076
C 0.544803 1.498311 3.353944
H 2.498415 3.729395 4.975041
H 1.151982 5.250370 3.550369
H -0.898924 2.101651 1.859670
H 0.299573 0.450022 3.300952
C -5.486314 1.385081 2.311149
C -5.512804 2.566606 2.569803
C -5.595561 3.899902 3.015545
C -6.756629 4.340530 3.625354
C -6.836397 5.618382 4.188926
C -5.752853 6.460916 4.182834
C -4.555045 6.060199 3.563496
C -3.394818 6.866851 3.547179
C -2.273771 6.431359 2.903178
N -2.244030 5.255892 2.228172
C -3.294684 4.459106 2.250063
C -4.477246 4.783892 2.933230
H -7.608916 3.680813 3.680854
H -7.759549 5.928919 4.653895
H -5.805609 7.431436 4.650725
H -3.407025 7.820613 4.049942
H -1.352650 7.010366 2.902688
H -3.224894 3.524722 1.698299
C -5.417061 -0.008686 2.099310
C -6.525682 -0.814529 2.377957
C -6.424503 -2.187146 2.244945
C -5.235445 -2.772710 1.843942
C -4.121052 -1.980657 1.556688
C -4.225935 -0.596034 1.677672
H -7.450211 -0.362512 2.702750
H -7.278546 -2.809031 2.466529
H -5.169644 -3.847842 1.789908
H -3.394022 0.041440 1.424743
C -2.848739 -2.582464 1.147075
C -2.789413 -3.752945 0.383777
C -1.564819 -4.242697 -0.022021
N -0.418941 -3.623886 0.277203
C -0.447981 -2.524499 1.040862
C -1.629472 -1.988124 1.500172
H -3.691477 -4.261729 0.085412
H -1.482267 -5.151100 -0.611806
H 0.519911 -2.083175 1.274104
H -1.616973 -1.122255 2.142012
C -2.830078 3.352212 -4.269405
C -2.925647 4.493293 -3.878793
C -2.971383 5.864122 -3.560044
C -3.537217 6.752374 -4.457083
C -3.493151 8.132366 -4.232175
C -2.856820 8.647774 -3.130632
C -2.276972 7.782165 -2.185277
C -1.581947 8.247251 -1.046243
C -1.067529 7.353861 -0.152567
N -1.240502 6.016693 -0.293202
C -1.852992 5.542491 -1.360660
C -2.365742 6.371631 -2.370529
H -4.006108 6.374306 -5.352705
H -3.948027 8.795017 -4.952541
H -2.792092 9.713798 -2.979075
H -1.461149 9.308354 -0.897224
H -0.495026 7.676576 0.714309
H -1.966763 4.463465 -1.433917
C -2.628321 2.045287 -4.763161
C -3.075847 1.705827 -6.044035
C -2.802720 0.449780 -6.553528
C -2.085788 -0.473490 -5.811282
C -1.637475 -0.151305 -4.527749
C -1.924209 1.109723 -4.007899
H -3.623482 2.427606 -6.630374
H -3.142623 0.190688 -7.544728
H -1.847878 -1.430123 -6.248525
H -1.626262 1.370652 -3.005063
C -0.860282 -1.108910 -3.735275
C -1.069781 -2.489268 -3.818951
C -0.342466 -3.340983 -3.012946
N 0.555140 -2.889723 -2.132173
C 0.799262 -1.575230 -2.059478
C 0.127707 -0.666166 -2.845151
H -1.812173 -2.893832 -4.487392
H -0.476239 -4.417975 -3.055861
H 1.559889 -1.272556 -1.341053
H 0.371580 0.382109 -2.787345
Pd 0.236230 -2.410862 -3.791422
Pd 0.612537 2.169235 4.304788
C 5.603017 3.302696 0.959167
C 5.506070 3.757329 2.076080
C 5.537268 4.225660 3.403824
C 6.642422 4.928168 3.849854
C 6.765349 5.305341 5.191271
C 5.807792 4.959673 6.111974
C 4.661035 4.255557 5.701890
C 3.652807 3.844101 6.602598
C 2.550531 3.190088 6.135516
N 2.360189 2.956621 4.813569
C 3.294560 3.293229 3.945961
C 4.493406 3.915822 4.327624
H 7.429546 5.174882 3.153931
H 7.640362 5.855407 5.502511
H 5.923153 5.219645 7.152530
H 3.768383 4.048952 7.654927
H 1.773662 2.827031 6.805233
H 3.101429 3.083217 2.896713
C 5.754886 2.690827 -0.303830
C 6.911289 2.918929 -1.056786
C 7.089312 2.253411 -2.255637
C 6.137371 1.359447 -2.716027
C 4.974438 1.125391 -1.977869
C 4.787864 1.805573 -0.775714
H 7.661056 3.605524 -0.694850
H 7.985103 2.424921 -2.833088
H 6.319986 0.820791 -3.632438
H 3.882354 1.674059 -0.205520
C 3.963075 0.170153 -2.439976
C 3.693980 -0.032269 -3.797507
C 2.691053 -0.902484 -4.172897
N 1.946714 -1.555963 -3.276140
C 2.212177 -1.409071 -1.972126
C 3.209916 -0.574397 -1.521988
H 4.243004 0.505094 -4.553456
H 2.458741 -1.086376 -5.217849
H 1.590059 -1.990070 -1.292767
H 3.421953 -0.504450 -0.467371
C -1.173816 5.906327 -0.168775
C -1.125170 6.313225 0.969577
C -1.216445 6.833956 2.274639
C -1.652338 8.133833 2.459290
C -1.871843 8.646572 3.742231
C -1.693413 7.863499 4.855245
C -1.239923 6.538917 4.716776
C -1.063734 5.670804 5.817916
C -0.592670 4.406161 5.617220
N -0.237486 3.958695 4.387871
C -0.420130 4.726732 3.331444
C -0.955053 6.021377 3.419579
H -1.841218 8.756571 1.598295
H -2.209089 9.666421 3.847745
H -1.899266 8.250114 5.840997
H -1.308878 6.017430 6.808975
H -0.480776 3.700077 6.437193
H -0.123873 4.325970 2.364668
C -1.325222 5.401532 -1.478304
C -1.794906 6.235301 -2.498213
C -2.019487 5.714003 -3.759047
C -1.789736 4.373917 -4.020816
C -1.314398 3.529740 -3.014058
C -1.074763 4.057360 -1.746340
H -1.987515 7.277356 -2.294184
H -2.388361 6.356459 -4.544134
H -2.014788 3.982614 -5.000398
H -0.669376 3.438396 -0.962054
C -1.083441 2.104562 -3.267967
C -0.654198 1.629292 -4.511436
C -0.404431 0.282631 -4.679203
N -0.543632 -0.594227 -3.680732
C -0.988562 -0.168771 -2.491646
C -1.277622 1.155993 -2.254609
H -0.490529 2.307032 -5.333259
H -0.075074 -0.120614 -5.632383
H -1.106258 -0.935272 -1.726975
H -1.666963 1.460923 -1.296877
C -4.751566 -3.547749 -0.443135
C -4.657144 -3.996760 -1.562522
C -4.691925 -4.458488 -2.892462
C -5.800321 -5.155131 -3.340025
C -5.926968 -5.525406 -4.683042
C -4.969753 -5.178678 -5.603610
C -3.819826 -4.480579 -5.192170
C -2.811572 -4.068568 -6.092574
C -1.706232 -3.420433 -5.624381
N -1.513045 -3.193513 -4.301729
C -2.447116 -3.530991 -3.434007
C -3.648653 -4.147967 -3.816601
H -6.587042 -5.402398 -2.643853
H -6.804416 -6.070712 -4.995317
H -5.087753 -5.433191 -6.645208
H -2.929495 -4.268229 -7.145611
H -0.929280 -3.057191 -6.293783
H -2.251350 -3.326614 -2.384185
C -4.900387 -2.941915 0.822980
C -6.051713 -3.178849 1.580890
C -6.227100 -2.518981 2.783379
C -5.277300 -1.622005 3.242475
C -4.119470 -1.379039 2.499419
C -3.935496 -2.053617 1.293707
H -6.799919 -3.867739 1.220046
H -7.119048 -2.697274 3.364654
H -5.458133 -1.087881 4.161809
H -3.033637 -1.914894 0.719356
C -3.110373 -0.420784 2.960166
C -2.835326 -0.222711 4.317071
C -1.834309 0.650439 4.691022
N -1.097071 1.310634 3.793169
C -1.368873 1.168009 2.489902
C -2.365256 0.330970 2.041398
H -3.378141 -0.765482 5.073648
H -1.597468 0.831013 5.735568
H -0.752756 1.754418 1.809827
H -2.582475 0.264770 0.987715
C 2.047942 -6.143199 0.678747
C 1.994904 -6.550789 -0.459198
C 2.081391 -7.072260 -1.764322
C 2.520366 -8.371018 -1.950045
C 2.734961 -8.884180 -3.233553
C 2.548583 -8.102596 -4.346297
C 2.091892 -6.779338 -4.206698
C 1.908035 -5.912560 -5.307479
C 1.434677 -4.649049 -5.105691
N 1.084178 -4.201362 -3.875056
C 1.273837 -4.968025 -2.818804
C 1.811897 -6.261397 -2.908562
H 2.715374 -8.992442 -1.089366
H 3.074759 -9.903121 -3.339904
H 2.750638 -8.489440 -5.332741
H 2.149291 -6.259388 -6.299668
H 1.317113 -3.943977 -5.925744
H 0.981426 -4.567504 -1.851008
C 2.203967 -5.636808 1.987053
C 2.685874 -6.466932 3.004339
C 2.914274 -5.943603 4.263685
C 2.676425 -4.605056 4.526622
C 2.189067 -3.764766 3.522383
C 1.945416 -4.294387 2.256380
H 2.884806 -7.507636 2.799315
H 3.292462 -6.583173 5.046612
H 2.904525 -4.211819 5.504502
H 1.530808 -3.678724 1.474346
C 1.950112 -2.340986 3.777128
C 1.525049 -1.867708 5.022813
C 1.268402 -0.522461 5.191412
N 1.396924 0.354745 4.191875
C 1.837237 -0.068576 3.000351
C 2.132489 -1.391771 2.762130
H 1.370156 -2.546223 5.845795
H 0.941954 -0.120583 6.146240
H 1.945693 0.698220 2.234451
H 2.517653 -1.695166 1.802291
