372
cid:69, pot: -243.4492280646511
Pd 2.700768 5.270354 2.175454
Pd -3.441198 -6.062742 -2.983574
C 3.863221 -3.811125 -1.970041
C 3.333528 -4.815710 -2.387215
C 2.681108 -5.987680 -2.813015
C 3.375717 -7.173272 -2.980909
C 2.714186 -8.351004 -3.346785
C 1.354798 -8.371160 -3.527589
C 0.610313 -7.182685 -3.370617
C -0.791828 -7.145662 -3.494356
N -1.487978 -6.038158 -3.348839
C -0.853182 -4.862480 -3.110959
C 0.500277 -4.794570 -2.945205
C 1.275393 -5.968227 -3.038109
H 4.443185 -7.189067 -2.820951
H 3.289453 -9.255231 -3.473172
H 0.846881 -9.285813 -3.788610
H -1.347017 -8.055112 -3.710199
H -1.494411 -3.984559 -3.060565
H 0.991083 -3.857337 -2.738112
C 4.460790 -2.637485 -1.472659
C 5.838430 -2.591517 -1.229486
C 6.417090 -1.441903 -0.738718
C 5.630471 -0.313351 -0.476980
C 4.252180 -0.361786 -0.715861
C 3.674308 -1.509238 -1.209764
H 6.445480 -3.461063 -1.432929
H 7.480490 -1.404121 -0.555110
H 3.651456 0.512206 -0.522162
H 2.613753 -1.546895 -1.401661
C 6.234060 0.867903 -0.006399
C 6.753796 1.893863 0.371075
C 7.420360 3.082383 0.718712
C 8.793660 3.168791 0.568874
C 9.474788 4.360440 0.834432
C 8.799124 5.487029 1.233957
C 7.404574 5.443795 1.410210
C 6.646043 6.569641 1.803688
C 5.297650 6.453681 1.976972
N 4.649679 5.273805 1.812720
C 5.318327 4.206705 1.422191
C 6.700353 4.226475 1.178320
H 9.343964 2.304464 0.229616
H 10.546125 4.390882 0.706729
H 9.325065 6.411161 1.415441
H 7.142996 7.513505 1.961161
H 4.681301 7.306170 2.256812
H 4.757778 3.282527 1.299616
C 0.355512 -4.424728 3.530240
C -0.132492 -5.425971 3.058041
C -0.664181 -6.580211 2.451939
C -0.388498 -7.842237 2.948419
C -0.867515 -8.990137 2.306331
C -1.607264 -8.899311 1.155352
C -1.918379 -7.630334 0.621695
C -2.637409 -7.469132 -0.578024
N -2.933944 -6.286498 -1.074561
C -2.581610 -5.160599 -0.404454
C -1.855933 -5.206408 0.751323
C -1.470384 -6.452764 1.285350
H 0.212704 -7.941402 3.839439
H -0.634343 -9.957406 2.723973
H -1.955914 -9.787243 0.652595
H -2.966328 -8.339912 -1.140260
H -2.917679 -4.225084 -0.846239
H -1.569049 -4.302907 1.264999
C 0.911387 -3.242820 4.056857
C 1.332775 -3.186582 5.390081
C 1.854021 -2.018772 5.901848
C 1.970804 -0.883064 5.090519
C 1.568707 -0.947201 3.751496
C 1.041683 -2.112016 3.241459
H 1.238380 -4.060450 6.017392
H 2.170279 -1.971204 6.933214
H 1.672013 -0.075787 3.125376
H 0.727205 -2.165210 2.211268
C 2.458355 0.316874 5.641571
C 2.837969 1.354972 6.135173
C 3.220006 2.534719 6.798282
C 3.519548 2.494388 8.149309
C 3.837385 3.659471 8.853501
C 3.843530 4.882838 8.229998
C 3.551864 4.972451 6.857221
C 3.522569 6.200923 6.158950
C 3.246863 6.216576 4.822824
N 3.022956 5.078343 4.120963
C 3.021140 3.914491 4.740342
C 3.258836 3.789349 6.117878
H 3.498055 1.547845 8.667395
H 4.067060 3.589074 9.905707
H 4.068673 5.782367 8.781024
H 3.715962 7.117533 6.692859
H 3.194188 7.146703 4.259848
H 2.833287 3.028046 4.138039
C -4.607620 3.146660 0.907447
C -4.071057 4.154623 1.307235
C -3.407688 5.326936 1.716692
C -4.077511 6.534355 1.809531
C -3.400788 7.709521 2.156396
C -2.050441 7.703199 2.394963
C -1.332172 6.490619 2.320099
C 0.060813 6.422592 2.512825
N 0.731964 5.291860 2.449427
C 0.076321 4.124038 2.231981
C -1.269047 4.084141 2.002099
C -2.014332 5.280703 2.005972
H -5.136230 6.570269 1.602318
H -3.956740 8.632115 2.221410
H -1.529752 8.614899 2.640960
H 0.630001 7.326568 2.716264
H 0.691371 3.227212 2.256826
H -1.774625 3.150416 1.814951
C -5.205093 1.959112 0.442593
C -4.409897 0.956933 -0.126405
C -4.982508 -0.214222 -0.568343
C -6.362234 -0.414183 -0.444878
C -7.159292 0.594678 0.110638
C -6.587566 1.769558 0.546948
H -3.346831 1.114079 -0.216229
H -4.372962 -0.986528 -1.008648
H -8.224637 0.443231 0.199729
H -7.202013 2.544990 0.979820
C -6.954276 -1.628560 -0.839717
C -7.466064 -2.684808 -1.136066
C -8.122467 -3.902435 -1.389515
C -9.482761 -4.008677 -1.155554
C -10.153206 -5.222498 -1.332641
C -9.478407 -6.351896 -1.726020
C -8.096918 -6.290863 -1.981567
C -7.339423 -7.418777 -2.370983
C -6.004030 -7.287974 -2.618176
N -5.369679 -6.093020 -2.529868
C -6.037224 -5.021508 -2.149627
C -7.405363 -5.052620 -1.838219
H -10.031159 -3.140795 -0.822540
H -11.214647 -5.267134 -1.142205
H -9.995061 -7.291644 -1.841350
H -7.826626 -8.376119 -2.465802
H -5.387238 -8.140226 -2.897823
H -5.486844 -4.084984 -2.089315
C -0.846679 3.537466 -4.446821
C -0.345103 4.538565 -3.988454
C 0.197176 5.695488 -3.398467
C -0.016563 6.947536 -3.948957
C 0.473532 8.101633 -3.327359
C 1.160391 8.029000 -2.142497
C 1.403548 6.771244 -1.550699
C 2.059198 6.631127 -0.312532
N 2.287588 5.458896 0.240776
C 1.925474 4.320763 -0.403654
C 1.258766 4.347700 -1.594746
C 0.946055 5.585373 -2.192678
H -0.575204 7.033565 -4.868585
H 0.291490 9.060242 -3.788366
H 1.517438 8.922904 -1.656569
H 2.393141 7.510158 0.233164
H 2.200639 3.392305 0.092983
H 0.959926 3.436928 -2.088068
C -1.434482 2.365312 -4.959015
C -1.274983 1.149610 -4.282841
C -1.854347 0.002114 -4.774756
C -2.603537 0.041665 -5.956376
C -2.764122 1.257467 -6.632301
C -2.187471 2.406611 -6.138292
H -0.691111 1.120594 -3.376550
H -1.724830 -0.937658 -4.262552
H -3.341375 1.287568 -7.544392
H -2.310004 3.343733 -6.660437
C -3.168745 -1.134084 -6.485136
C -3.629380 -2.151383 -6.952087
C -4.105460 -3.313063 -7.585861
C -4.489955 -3.262049 -8.914530
C -4.896185 -4.415115 -9.592729
C -4.907738 -5.636802 -8.966045
C -4.535471 -5.735533 -7.613542
C -4.509506 -6.962839 -6.912981
C -4.158479 -6.985483 -5.594691
N -3.857385 -5.853961 -4.910434
C -3.846474 -4.692840 -5.534897
C -4.153611 -4.563307 -6.898247
H -4.463338 -2.317943 -9.436810
H -5.189343 -4.337328 -10.628635
H -5.199420 -6.528044 -9.499147
H -4.766123 -7.873168 -7.430862
H -4.106016 -7.916026 -5.032431
H -3.595644 -3.811864 -4.948016
Pd 3.872574 3.693100 2.956333
Pd -4.549554 -5.017747 -3.823535
C 3.063252 -4.590534 -2.677064
C 2.330871 -5.372617 -3.238936
C 1.442428 -6.287927 -3.833418
C 1.864555 -7.549050 -4.217756
C 0.965605 -8.478131 -4.753846
C -0.364756 -8.175244 -4.893089
C -0.834878 -6.898841 -4.517417
C -2.194922 -6.541383 -4.589654
N -2.635313 -5.351307 -4.240171
C -1.762210 -4.396817 -3.829838
C -0.427176 -4.649963 -3.697214
C 0.075684 -5.929546 -4.008220
H 2.902253 -7.820392 -4.095962
H 1.331960 -9.449970 -5.046808
H -1.057304 -8.901920 -5.286795
H -2.932765 -7.260619 -4.936452
H -2.198250 -3.423324 -3.614113
H 0.253847 -3.888803 -3.352399
C 3.898090 -3.673934 -2.010098
C 5.251529 -3.966452 -1.805602
C 6.062696 -3.067860 -1.148587
C 5.537860 -1.857764 -0.678323
C 4.183238 -1.568248 -0.878897
C 3.373299 -2.464386 -1.538753
H 5.656842 -4.898768 -2.169731
H 7.107947 -3.290696 -0.994431
H 3.785089 -0.631414 -0.523849
H 2.330900 -2.240634 -1.701149
C 6.380368 -0.930628 -0.036682
C 7.107936 -0.119081 0.489986
C 8.014201 0.822335 1.009691
C 9.374409 0.636153 0.833632
C 10.296055 1.591327 1.272557
C 9.878320 2.752388 1.874892
C 8.506558 2.980218 2.084767
C 8.007762 4.159361 2.683503
C 6.665302 4.307790 2.876927
N 5.778011 3.339679 2.538835
C 6.201755 2.235814 1.955546
C 7.556607 1.999600 1.675470
H 9.726268 -0.255946 0.338297
H 11.349256 1.412366 1.118451
H 10.590994 3.497862 2.191158
H 8.696543 4.934037 2.980339
H 6.246759 5.212704 3.313840
H 5.454928 1.487799 1.698305
C -0.525889 -5.358996 2.750771
C -1.216568 -6.137546 2.133889
C -1.982240 -7.031211 1.360988
C -1.989526 -8.388387 1.631625
C -2.702187 -9.281145 0.822673
C -3.397974 -8.840200 -0.273618
C -3.423594 -7.462541 -0.578618
C -4.083620 -6.950147 -1.711814
N -4.113948 -5.664893 -1.995162
C -3.529821 -4.770763 -1.158268
C -2.838053 -5.166207 -0.049327
C -2.734892 -6.538181 0.257476
H -1.429258 -8.763520 2.474582
H -2.686580 -10.332238 1.066033
H -3.927844 -9.534473 -0.906011
H -4.590169 -7.622005 -2.400696
H -3.652596 -3.724033 -1.427470
H -2.365141 -4.445551 0.598406
C 0.269850 -4.430463 3.449197
C 0.685656 -4.692431 4.759407
C 1.444655 -3.767468 5.441960
C 1.809464 -2.562819 4.827755
C 1.410788 -2.311633 3.509883
C 0.646845 -3.232699 2.829778
H 0.400524 -5.618898 5.235196
H 1.757706 -3.964143 6.456518
H 1.704153 -1.389533 3.034642
H 0.334299 -3.041991 1.815339
C 2.542311 -1.606374 5.555440
C 3.135033 -0.772773 6.202942
C 3.759811 0.167892 7.040929
C 4.035659 -0.163790 8.356398
C 4.594368 0.769555 9.234524
C 4.869100 2.050532 8.823453
C 4.611750 2.431659 7.494454
C 4.853437 3.737859 7.011610
C 4.595452 4.038185 5.706028
N 4.134215 3.110019 4.831794
C 3.876633 1.886055 5.248581
C 4.073573 1.481620 6.577935
H 3.806526 -1.157415 8.710152
H 4.797213 0.474515 10.252619
H 5.280659 2.774313 9.509228
H 5.237766 4.487686 7.684367
H 4.748840 5.039439 5.307604
H 3.504648 1.175634 4.513271
C -3.714888 3.432938 1.580431
C -2.974943 4.219733 2.125586
C -2.075671 5.135816 2.703571
C -2.468412 6.425254 3.016941
C -1.555086 7.351842 3.533353
C -0.239593 7.015689 3.725429
C 0.199171 5.707737 3.427420
C 1.543198 5.310830 3.562774
N 1.953688 4.089855 3.291198
C 1.061791 3.143937 2.902890
C -0.258868 3.433201 2.711497
C -0.727120 4.743435 2.937716
H -3.492961 6.722044 2.851616
H -1.898269 8.347563 3.768263
H 0.464816 7.739255 4.103384
H 2.293578 6.023823 3.896055
H 1.467728 2.145128 2.758970
H -0.953675 2.675165 2.387413
C -4.552812 2.497483 0.943202
C -3.990446 1.459065 0.190902
C -4.800690 0.530153 -0.421791
C -6.191648 0.612929 -0.290456
C -6.754288 1.660469 0.449759
C -5.944097 2.594038 1.057560
H -2.918064 1.397365 0.095499
H -4.370458 -0.269054 -1.003191
H -7.827666 1.728263 0.545433
H -6.378373 3.398616 1.632291
C -7.030488 -0.361357 -0.863294
C -7.757322 -1.217455 -1.315297
C -8.660513 -2.204990 -1.747311
C -10.012825 -2.054896 -1.492109
C -10.929405 -3.048724 -1.847903
C -10.513091 -4.213298 -2.444502
C -9.149787 -4.407770 -2.729236
C -8.652513 -5.589433 -3.324301
C -7.319064 -5.708218 -3.587690
N -6.441321 -4.709815 -3.321422
C -6.863021 -3.600274 -2.747610
C -8.207146 -3.389336 -2.403292
H -10.362036 -1.158750 -1.002419
H -11.976364 -2.896154 -1.634590
H -11.220480 -4.986966 -2.698512
H -9.335044 -6.389732 -3.561939
H -6.900058 -6.613121 -4.024329
H -6.123089 -2.827656 -2.549383
C 0.072356 3.908017 -3.748369
C 0.776304 4.685817 -3.145590
C 1.552992 5.582501 -2.388426
C 1.618882 6.925936 -2.715931
C 2.343854 7.825770 -1.926430
C 2.991754 7.408049 -0.792205
C 2.953094 6.045769 -0.425821
C 3.555628 5.560855 0.750712
N 3.521310 4.290561 1.093812
C 2.924896 3.382489 0.280558
C 2.286772 3.752984 -0.868113
C 2.253204 5.111843 -1.241672
H 1.097486 7.284160 -3.590603
H 2.376544 8.864963 -2.215612
H 3.531240 8.109080 -0.175557
H 4.068959 6.242348 1.424518
H 2.989412 2.346258 0.606941
H 1.800504 3.024518 -1.496678
C -0.752534 2.993302 -4.430021
C -0.864222 1.675215 -3.970924
C -1.675653 0.778934 -4.628717
C -2.391590 1.177756 -5.763434
C -2.280924 2.496105 -6.222161
C -1.471821 3.394184 -5.561991
H -0.305805 1.368618 -3.100730
H -1.755824 -0.239484 -4.284343
H -2.832683 2.803227 -7.098184
H -1.385311 4.410303 -5.916805
C -3.195127 0.257461 -6.462682
C -3.862551 -0.543223 -7.077882
C -4.575401 -1.451315 -7.881027
C -4.931977 -1.094855 -9.170063
C -5.574530 -2.002105 -10.017805
C -5.854221 -3.280916 -9.603127
C -5.520031 -3.684629 -8.298152
C -5.764757 -4.989362 -7.812848
C -5.434621 -5.309583 -6.528233
N -4.899432 -4.401488 -5.674944
C -4.633484 -3.181209 -6.097395
C -4.897322 -2.759965 -7.409922
H -4.698392 -0.104067 -9.528511
H -5.837864 -1.689102 -11.016678
H -6.329036 -3.985407 -10.267857
H -6.209546 -5.722349 -8.466750
H -5.588298 -6.311051 -6.130590
H -4.201112 -2.486914 -5.380186
