372
cid:69, pot: -236.4189139605637
Pd 3.878564 5.056347 3.142040
Pd -3.961558 -4.673220 -2.911587
C 3.276310 -4.377871 -0.270071
C 2.586343 -5.240175 -0.764215
C 1.735953 -6.230653 -1.289821
C 2.082411 -7.570105 -1.243621
C 1.208791 -8.557517 -1.713029
C -0.026065 -8.229678 -2.211712
C -0.415859 -6.875167 -2.280503
C -1.686751 -6.475228 -2.736096
N -2.052050 -5.212437 -2.801509
C -1.176019 -4.232899 -2.462614
C 0.070220 -4.514950 -1.981708
C 0.478841 -5.856952 -1.843984
H 3.039138 -7.855987 -0.833414
H 1.515128 -9.591159 -1.665336
H -0.704134 -8.995730 -2.552429
H -2.417313 -7.218957 -3.044425
H -1.534829 -3.214485 -2.598810
H 0.750541 -3.728191 -1.698235
C 4.060361 -3.363713 0.311871
C 5.306000 -3.665359 0.874481
C 6.066991 -2.669801 1.446383
C 5.597899 -1.350623 1.471428
C 4.350012 -1.050725 0.912919
C 3.591057 -2.044746 0.338083
H 5.668719 -4.682223 0.853691
H 7.030050 -2.900859 1.876601
H 3.996592 -0.032303 0.925596
H 2.632498 -1.815181 -0.099507
C 6.395593 -0.333536 2.028515
C 7.091037 0.547853 2.480972
C 7.976415 1.542377 2.933483
C 9.315354 1.240405 3.112156
C 10.233138 2.225607 3.488366
C 9.836945 3.527163 3.673646
C 8.484731 3.878903 3.513955
C 8.012315 5.201418 3.673647
C 6.683065 5.470789 3.524749
N 5.777466 4.498310 3.254325
C 6.182127 3.256535 3.073914
C 7.530719 2.878772 3.165861
H 9.656261 0.229903 2.945843
H 11.269478 1.953523 3.618621
H 10.551906 4.289304 3.941120
H 8.711099 5.987795 3.910184
H 6.290120 6.481637 3.618093
H 5.421996 2.509687 2.855366
C -1.373113 -3.459078 4.254561
C -2.011209 -4.335026 3.716828
C -2.704505 -5.359451 3.044360
C -2.915861 -6.591424 3.638308
C -3.550337 -7.627630 2.943235
C -3.963449 -7.459468 1.646589
C -3.775058 -6.215112 1.007861
C -4.138104 -5.990113 -0.333738
N -3.968857 -4.828570 -0.929791
C -3.464997 -3.776492 -0.236906
C -3.053218 -3.897266 1.059388
C -3.165770 -5.139941 1.715381
H -2.577664 -6.756912 4.649955
H -3.700016 -8.573950 3.439699
H -4.432484 -8.267509 1.108241
H -4.570845 -6.793123 -0.925739
H -3.415134 -2.835376 -0.780153
H -2.639761 -3.056583 1.593041
C -0.631994 -2.422794 4.854636
C -0.513791 -2.345830 6.246872
C 0.194231 -1.315254 6.824801
C 0.804521 -0.342044 6.023468
C 0.703331 -0.432355 4.630492
C -0.009605 -1.458332 4.052755
H -0.988273 -3.093133 6.865320
H 0.277759 -1.249209 7.899351
H 1.185169 0.310323 4.015413
H -0.093334 -1.530124 2.979976
C 1.481692 0.732385 6.630312
C 2.024484 1.674974 7.161630
C 2.572960 2.769915 7.852822
C 2.546006 2.788992 9.236850
C 3.021416 3.891364 9.953152
C 3.512471 4.997507 9.304513
C 3.565589 5.021282 7.899440
C 4.041354 6.134196 7.169607
C 4.080253 6.086597 5.806627
N 3.699654 4.984913 5.113985
C 3.230527 3.934180 5.757463
C 3.115863 3.891384 7.155599
H 2.142659 1.941301 9.769343
H 2.985923 3.869857 11.031633
H 3.859021 5.854816 9.859847
H 4.366888 7.014651 7.700134
H 4.419502 6.933923 5.213498
H 2.933706 3.074124 5.160772
C -3.270934 4.858532 0.247908
C -2.569796 5.720444 0.726691
C -1.705523 6.706633 1.239033
C -2.006233 8.052639 1.125095
C -1.115018 9.031563 1.579769
C 0.091232 8.686709 2.133329
C 0.431755 7.324568 2.276446
C 1.670190 6.904460 2.797948
N 1.987602 5.634552 2.937953
C 1.089898 4.670237 2.613633
C -0.126795 4.970377 2.071389
C -0.481601 6.317178 1.853527
H -2.938735 8.350600 0.670374
H -1.384687 10.071318 1.476441
H 0.783658 9.444960 2.462618
H 2.414963 7.637912 3.097776
H 1.402453 3.648460 2.817304
H -0.824254 4.192991 1.803623
C -4.065966 3.834358 -0.301932
C -3.485715 2.602452 -0.627775
C -4.257871 1.589636 -1.150054
C -5.629460 1.781889 -1.351679
C -6.206599 3.019316 -1.039608
C -5.432977 4.035361 -0.523140
H -2.429198 2.457813 -0.467391
H -3.813352 0.640985 -1.403699
H -7.263457 3.169950 -1.201457
H -5.879555 4.987563 -0.277992
C -6.442369 0.737725 -1.831287
C -7.156754 -0.166505 -2.202004
C -8.061523 -1.181998 -2.559615
C -9.412353 -0.893908 -2.652820
C -10.345811 -1.894164 -2.939807
C -9.952569 -3.197548 -3.119226
C -8.590152 -3.536845 -3.040256
C -8.120180 -4.860645 -3.196176
C -6.782687 -5.119869 -3.122650
N -5.868914 -4.137059 -2.929729
C -6.269040 -2.892409 -2.759203
C -7.622657 -2.522331 -2.781880
H -9.749103 0.118847 -2.492243
H -11.390665 -1.631915 -3.006300
H -10.677764 -3.970372 -3.319710
H -8.827392 -5.656141 -3.369089
H -6.389302 -6.130590 -3.215711
H -5.501280 -2.137375 -2.603958
C 1.519333 3.673198 -4.066478
C 2.173072 4.543941 -3.538930
C 2.880535 5.566439 -2.879676
C 3.158641 6.766666 -3.510911
C 3.809698 7.803730 -2.833311
C 4.171247 7.670685 -1.517056
C 3.909947 6.461305 -0.838511
C 4.211471 6.277482 0.524523
N 3.969206 5.150042 1.159049
C 3.447122 4.091507 0.489202
C 3.092694 4.174731 -0.826617
C 3.284694 5.382958 -1.526951
H 2.862658 6.905199 -4.539698
H 4.014088 8.723566 -3.359358
H 4.653498 8.480465 -0.993259
H 4.654867 7.085349 1.101366
H 3.330461 3.179145 1.070911
H 2.661562 3.332383 -1.343098
C 0.748053 2.656321 -4.660523
C 0.402265 1.518353 -3.921575
C -0.358528 0.524896 -4.494835
C -0.788395 0.643356 -5.821582
C -0.443646 1.781736 -6.560551
C 0.314629 2.777715 -5.985966
H 0.740978 1.426271 -2.901817
H -0.617736 -0.357532 -3.932313
H -0.774606 1.872484 -7.584400
H 0.581768 3.654710 -6.556374
C -1.535997 -0.384737 -6.426187
C -2.154281 -1.282886 -6.951714
C -2.791765 -2.332228 -7.637511
C -2.845923 -2.315935 -9.020480
C -3.406065 -3.380362 -9.733063
C -3.902381 -4.483116 -9.082688
C -3.878460 -4.539378 -7.677747
C -4.357498 -5.650044 -6.946527
C -4.324210 -5.631227 -5.582651
N -3.869652 -4.558533 -4.888451
C -3.391708 -3.513383 -5.534596
C -3.343689 -3.446250 -6.935676
H -2.437573 -1.472384 -9.555732
H -3.431264 -3.333034 -10.811126
H -4.312574 -5.312756 -9.636788
H -4.743740 -6.505838 -7.476797
H -4.663619 -6.478967 -4.990252
H -3.034309 -2.677081 -4.937662
Pd 4.868569 4.609668 2.788450
Pd -4.378425 -4.338787 -2.426524
C 0.667499 0.652414 -5.439545
C -0.110827 -0.151509 -5.899601
C -0.986278 -1.135631 -6.395206
C -0.935621 -1.538189 -7.718731
C -1.766681 -2.558897 -8.194323
C -2.639787 -3.206685 -7.358233
C -2.725458 -2.823380 -6.002841
C -3.565066 -3.479154 -5.082117
N -3.646715 -3.122885 -3.817693
C -2.937145 -2.058727 -3.364031
C -2.072555 -1.373065 -4.167983
C -1.914939 -1.759202 -5.514453
H -0.239706 -1.060404 -8.391563
H -1.702643 -2.842651 -9.233504
H -3.262765 -4.006939 -7.724535
H -4.174492 -4.321515 -5.399936
H -3.103505 -1.793541 -2.321745
H -1.500358 -0.540882 -3.790999
C 1.573941 1.575833 -4.884916
C 2.512714 2.222915 -5.696810
C 3.400016 3.122198 -5.148071
C 3.370668 3.392237 -3.774335
C 2.434849 2.741023 -2.962416
C 1.545578 1.845165 -3.511150
H 2.534335 2.016144 -6.756461
H 4.121541 3.625266 -5.774405
H 2.409067 2.958749 -1.906873
H 0.818648 1.347511 -2.889100
C 4.259042 4.336590 -3.226526
C 5.002182 5.168865 -2.757053
C 5.822215 6.208293 -2.282914
C 6.436276 7.063159 -3.181780
C 7.195950 8.150324 -2.739725
C 7.340168 8.413910 -1.399912
C 6.743301 7.566507 -0.449470
C 6.838424 7.788659 0.943104
C 6.252672 6.915015 1.812174
N 5.596992 5.807017 1.386431
C 5.465499 5.578026 0.094698
C 5.995717 6.433314 -0.883675
H 6.315208 6.892847 -4.240713
H 7.660506 8.795830 -3.469462
H 7.907583 9.267196 -1.062863
H 7.373425 8.651751 1.305735
H 6.287452 7.069423 2.889155
H 4.928888 4.679353 -0.201757
C 3.315965 -4.171093 -1.882400
C 2.514168 -4.925322 -2.384377
C 1.554669 -5.750024 -3.002031
C 1.927292 -6.734319 -3.900663
C 0.966535 -7.510112 -4.559753
C -0.372900 -7.304578 -4.349814
C -0.794285 -6.316959 -3.434024
C -2.152942 -6.027853 -3.204282
N -2.548564 -5.111217 -2.346176
C -1.634620 -4.430753 -1.609467
C -0.291928 -4.613799 -1.777811
C 0.172490 -5.546236 -2.727527
H 2.974974 -6.898883 -4.101864
H 1.294755 -8.270022 -5.251904
H -1.109552 -7.890368 -4.876019
H -2.926398 -6.563483 -3.749636
H -2.042129 -3.736615 -0.877827
H 0.423563 -4.054503 -1.196597
C 4.225979 -3.277251 -1.285661
C 5.571101 -3.629666 -1.128753
C 6.448331 -2.757255 -0.523044
C 6.001404 -1.511096 -0.066036
C 4.660428 -1.151497 -0.242933
C 3.782111 -2.025552 -0.842182
H 5.915183 -4.592329 -1.476465
H 7.484379 -3.032121 -0.392419
H 4.321767 -0.186337 0.097599
H 2.747102 -1.754277 -0.977488
C 6.898436 -0.651641 0.595815
C 7.666284 0.061837 1.201478
C 8.598049 0.799553 1.953148
C 9.879216 0.305809 2.130334
C 10.809253 0.980222 2.926945
C 10.473775 2.144059 3.573704
C 9.185897 2.687210 3.418520
C 8.769937 3.870535 4.070003
C 7.510209 4.352377 3.864553
N 6.635838 3.745477 3.024515
C 6.979033 2.628295 2.414376
C 8.236956 2.029235 2.582581
H 10.159745 -0.620011 1.651693
H 11.799290 0.565964 3.040656
H 11.187194 2.650766 4.204426
H 9.454812 4.380490 4.728366
H 7.150483 5.247983 4.367809
H 6.244445 2.174326 1.752527
C -0.373046 -0.174910 5.815603
C 0.394964 0.643051 6.268217
C 1.262496 1.640761 6.751879
C 1.165632 2.106496 8.051418
C 1.988421 3.142170 8.509467
C 2.901099 3.739696 7.678566
C 3.037833 3.287424 6.348598
C 3.925630 3.884516 5.433414
N 4.059266 3.460598 4.194273
C 3.356837 2.381639 3.765943
C 2.447153 1.749855 4.564547
C 2.234417 2.209066 5.880228
H 0.437822 1.669451 8.718052
H 1.886035 3.477490 9.530004
H 3.517773 4.551440 8.029812
H 4.531329 4.735995 5.734445
H 3.569376 2.054453 2.750613
H 1.884354 0.903145 4.205734
C -1.254328 -1.123155 5.261141
C -1.458314 -1.156851 3.876303
C -2.304865 -2.090866 3.323374
C -2.961307 -3.018019 4.140893
C -2.768540 -2.974310 5.527526
C -1.926605 -2.035574 6.081878
H -0.947588 -0.442728 3.250124
H -2.465264 -2.117694 2.257817
H -3.280261 -3.685228 6.158897
H -1.774553 -2.005618 7.150634
C -3.785196 -4.014841 3.585394
C -4.460862 -4.901929 3.114173
C -5.201139 -6.000204 2.641525
C -5.741052 -6.901132 3.543317
C -6.424513 -8.039336 3.105394
C -6.564341 -8.308185 1.766123
C -6.038060 -7.418384 0.812827
C -6.130677 -7.644493 -0.579297
C -5.611326 -6.732966 -1.451627
N -5.023959 -5.586367 -1.029188
C -4.899870 -5.348969 0.261709
C -5.368000 -6.236127 1.243303
H -5.623691 -6.724417 4.601532
H -6.833484 -8.718682 3.837607
H -7.073954 -9.198201 1.431985
H -6.610181 -8.540914 -0.938884
H -5.645628 -6.887150 -2.528716
H -4.418840 -4.418128 0.554758
C -2.798660 4.555753 1.981251
C -2.001294 5.323376 2.469942
C -1.049231 6.162988 3.077570
C -1.435748 7.197737 3.912026
C -0.485265 7.993260 4.561890
C 0.857088 7.757318 4.409729
C 1.292854 6.714907 3.564136
C 2.653225 6.389810 3.402511
N 3.061719 5.418438 2.613771
C 2.162312 4.712311 1.882922
C 0.818531 4.929144 1.988530
C 0.337900 5.923308 2.864772
H -2.486782 7.388575 4.067388
H -0.824003 8.794008 5.201168
H 1.585120 8.359516 4.929414
H 3.416754 6.941580 3.945215
H 2.584525 3.965729 1.212986
H 0.112592 4.349036 1.416395
C -3.712117 3.645417 1.416732
C -3.243885 2.550079 0.680805
C -4.132236 1.652398 0.133599
C -5.509888 1.830475 0.305558
C -5.978399 2.925168 1.042355
C -5.089537 3.821618 1.593100
H -2.182204 2.419330 0.543658
H -3.775732 0.813845 -0.442534
H -7.041365 3.062784 1.174047
H -5.451021 4.666608 2.159841
C -6.425746 0.937050 -0.281432
C -7.211027 0.183438 -0.810984
C -8.165344 -0.604515 -1.478993
C -9.471192 -0.158191 -1.585668
C -10.424467 -0.882651 -2.307517
C -10.088928 -2.049680 -2.948610
C -8.776723 -2.547443 -2.859305
C -8.360532 -3.732720 -3.507103
C -7.076785 -4.171651 -3.361843
N -6.177378 -3.520751 -2.583023
C -6.520323 -2.398354 -1.982285
C -7.802507 -1.839228 -2.097033
H -9.752888 0.770425 -1.113408
H -11.433416 -0.504111 -2.369097
H -10.821395 -2.593740 -3.524033
H -9.064484 -4.278977 -4.114351
H -6.717842 -5.067316 -3.865449
H -5.766151 -1.907933 -1.370656
