308
cid:69, pot: -202.79171797341357
Pd 0.380966 4.582997 -1.352919
Pd -0.714649 -4.353184 1.016035
C 5.176539 -2.749457 1.340092
C 4.848244 -3.895606 1.545779
C 4.577808 -5.271070 1.680117
C 5.622051 -6.148685 1.910810
C 5.412322 -7.531552 1.930515
C 4.169039 -8.060147 1.687718
C 3.074959 -7.205681 1.459915
C 1.776226 -7.684631 1.175280
C 0.751757 -6.802382 0.993472
N 0.924841 -5.463941 1.123027
C 2.128541 -4.976489 1.352406
C 3.261487 -5.792897 1.495449
H 6.617293 -5.759654 2.062199
H 6.250484 -8.185713 2.116587
H 4.017694 -9.127975 1.666732
H 1.609341 -8.747238 1.100314
H -0.251757 -7.135421 0.736724
H 2.221476 -3.897086 1.444644
C 5.565292 -1.434788 1.004109
C 6.916015 -1.073696 1.042143
C 7.297714 0.191275 0.634499
C 6.357501 1.102462 0.183955
C 5.003910 0.758392 0.145523
C 4.616533 -0.511912 0.568568
H 7.652870 -1.785608 1.380932
H 8.341107 0.467064 0.657890
H 6.685781 2.067214 -0.169225
H 3.575176 -0.790433 0.586804
C 3.995617 1.703014 -0.344286
C 4.113373 3.083770 -0.154911
C 3.105379 3.921191 -0.587101
N 1.998949 3.455158 -1.173550
C 1.881792 2.141070 -1.401811
C 2.854458 1.246079 -1.017581
H 4.970373 3.498871 0.349948
H 3.166470 4.998105 -0.460029
H 0.970626 1.826864 -1.908830
H 2.746452 0.198309 -1.246792
C -0.187095 -0.883479 6.001198
C -0.397469 -2.069422 6.114924
C -0.762996 -3.410702 6.339091
C -0.935759 -3.860891 7.635718
C -1.415182 -5.149322 7.894961
C -1.760558 -5.993440 6.869173
C -1.590958 -5.582888 5.534299
C -1.953608 -6.390461 4.432827
C -1.735581 -5.943879 3.162175
N -1.132251 -4.756000 2.912043
C -0.811255 -3.958948 3.912530
C -1.047696 -4.295088 5.254609
H -0.711964 -3.201061 8.459874
H -1.534397 -5.467255 8.919454
H -2.165034 -6.972574 7.072508
H -2.404942 -7.353627 4.609284
H -2.036718 -6.523337 2.292140
H -0.331892 -3.014429 3.665374
C -0.041642 0.513897 5.864153
C 0.016748 1.324930 7.002146
C 0.075959 2.699104 6.860535
C 0.072188 3.280852 5.604050
C 0.020714 2.483710 4.457663
C -0.025215 1.097821 4.599138
H 0.006601 0.875339 7.983150
H 0.114248 3.324840 7.739217
H 0.074336 4.356218 5.521640
H -0.024247 0.457363 3.731816
C -0.003127 3.082839 3.119945
C 0.666988 4.274663 2.825289
C 0.651793 4.766490 1.536112
N 0.026011 4.130225 0.541755
C -0.653149 3.007091 0.806641
C -0.700216 2.466671 2.071699
H 1.217814 4.799682 3.588443
H 1.157165 5.691395 1.273901
H -1.163640 2.550295 -0.040045
H -1.284307 1.580351 2.259132
C -5.509298 2.977206 -1.681525
C -5.181356 4.124544 -1.880715
C -4.912099 5.501012 -2.007399
C -5.957599 6.379003 -2.231366
C -5.749309 7.762245 -2.243141
C -4.506148 8.290499 -1.999282
C -3.410856 7.435853 -1.778346
C -2.112076 7.914347 -1.493221
C -1.086398 7.032047 -1.318098
N -1.258508 5.694161 -1.454770
C -2.462139 5.206872 -1.685086
C -3.596090 6.023037 -1.821781
H -6.952672 5.989857 -2.383328
H -6.588337 8.416601 -2.423940
H -4.355713 9.358325 -1.972281
H -1.945985 8.976660 -1.412689
H -0.082879 7.364697 -1.061182
H -2.554084 4.127860 -1.783394
C -5.897516 1.660585 -1.352811
C -7.246977 1.296387 -1.401612
C -7.628559 0.029194 -1.000834
C -6.689295 -0.881273 -0.546543
C -5.336979 -0.534080 -0.497247
C -4.949686 0.738526 -0.913537
H -7.983224 2.007566 -1.743269
H -8.671055 -0.249069 -1.032487
H -7.017811 -1.847871 -0.198803
H -3.908852 1.019595 -0.923171
C -4.329692 -1.477770 -0.003732
C -4.442718 -2.858122 -0.198726
C -3.435387 -3.694487 0.237089
N -2.333740 -3.227812 0.832142
C -2.221740 -1.914252 1.065989
C -3.194159 -1.020343 0.678804
H -5.295352 -3.273651 -0.710539
H -3.492910 -4.771190 0.105718
H -1.314737 -1.599540 1.580077
H -3.090406 0.026707 0.912825
C -0.120989 1.109144 -6.340425
C 0.085040 2.295955 -6.453596
C 0.445975 3.638593 -6.677011
C 0.622165 4.088755 -7.973218
C 1.097125 5.378980 -8.231358
C 1.434725 6.225126 -7.204702
C 1.261504 5.814638 -5.870276
C 1.616670 6.624186 -4.767892
C 1.395912 6.177361 -3.497836
N 0.796583 4.987114 -3.249177
C 0.482465 4.188226 -4.250469
C 0.722571 4.524739 -5.591860
H 0.404441 3.427395 -8.797919
H 1.219156 5.696782 -9.255591
H 1.835832 7.205824 -7.406967
H 2.064670 7.589240 -4.943124
H 1.691609 6.758549 -2.627111
H 0.006283 3.241921 -4.004777
C -0.261443 -0.288692 -6.203006
C -0.306911 -1.101181 -7.340523
C -0.361664 -2.475402 -7.197854
C -0.366085 -3.055891 -5.940731
C -0.327404 -2.257230 -4.794917
C -0.286135 -0.871372 -4.937563
H -0.290305 -0.652560 -8.321912
H -0.390026 -3.102201 -8.076181
H -0.364473 -4.131034 -5.857086
H -0.297082 -0.229897 -4.071004
C -0.311524 -2.854814 -3.456376
C -0.978872 -4.049044 -3.165275
C -0.970626 -4.539683 -1.875603
N -0.354340 -3.900020 -0.877546
C 0.321754 -2.774168 -1.138556
C 0.375264 -2.234572 -2.403719
H -1.522111 -4.577039 -3.931920
H -1.474092 -5.466366 -1.615931
H 0.824138 -2.314126 -0.288690
H 0.956449 -1.345761 -2.587933
Pd 1.365170 4.871348 -0.438423
Pd -1.175970 -4.079632 -0.138303
C -1.396063 -1.593651 5.443297
C -1.626271 -2.772068 5.295236
C -1.788547 -4.169802 5.238519
C -2.021378 -4.873908 6.406358
C -2.068282 -6.271963 6.409641
C -1.850907 -6.987910 5.258874
C -1.621945 -6.314180 4.045340
C -1.362497 -6.990296 2.831814
C -1.178215 -6.277654 1.683296
N -1.281735 -4.926140 1.652049
C -1.487055 -4.257136 2.769803
C -1.629978 -4.888996 4.015134
H -2.153010 -4.335357 7.332305
H -2.255258 -6.787475 7.339360
H -1.850860 -8.066562 5.271521
H -1.308642 -8.067237 2.827762
H -0.940247 -6.764183 0.739624
H -1.558861 -3.174515 2.698381
C -1.031850 -0.241896 5.624177
C -1.046192 0.320826 6.904560
C -0.611274 1.620835 7.085316
C -0.156616 2.369681 6.013011
C -0.141645 1.823304 4.727196
C -0.592153 0.517433 4.541788
H -1.388100 -0.264162 7.744470
H -0.616387 2.052351 8.074798
H 0.217771 3.366079 6.187178
H -0.628709 0.084349 3.555145
C 0.351888 2.594078 3.582115
C 0.188582 3.980147 3.490340
C 0.622690 4.646072 2.362445
N 1.186552 4.006059 1.334003
C 1.389857 2.685274 1.415833
C 1.002239 1.956052 2.517094
H -0.297796 4.530394 4.279207
H 0.515576 5.722082 2.260272
H 1.879599 2.226440 0.558078
H 1.211408 0.899746 2.567454
C -6.091568 -0.473428 -0.095109
C -6.229103 -1.675163 -0.121501
C -6.481680 -3.051703 -0.276485
C -7.788187 -3.497610 -0.365843
C -8.076383 -4.838582 -0.641087
C -7.070367 -5.745208 -0.864245
C -5.726304 -5.339748 -0.772356
C -4.644044 -6.214455 -1.018880
C -3.362989 -5.764789 -0.883980
N -3.084055 -4.504144 -0.470884
C -4.066030 -3.648232 -0.264929
C -5.416773 -3.990118 -0.434115
H -8.597570 -2.795436 -0.236833
H -9.107859 -5.150842 -0.700356
H -7.296163 -6.770236 -1.113016
H -4.843343 -7.231335 -1.316666
H -2.507292 -6.400111 -1.102108
H -3.796005 -2.646842 0.062697
C -5.927895 0.926891 -0.165289
C -7.050397 1.759373 -0.219622
C -6.883679 3.123562 -0.371553
C -5.617215 3.673325 -0.476280
C -4.485929 2.855487 -0.417300
C -4.652630 1.481699 -0.250474
H -8.039315 1.332752 -0.151499
H -7.750556 3.764922 -0.420152
H -5.515712 4.734790 -0.638560
H -3.796809 0.832027 -0.160713
C -3.138196 3.417778 -0.545315
C -2.813831 4.691589 -0.067257
C -1.516442 5.150138 -0.169924
N -0.541593 4.406967 -0.701492
C -0.835094 3.199072 -1.199235
C -2.110087 2.682542 -1.150960
H -3.560402 5.309039 0.404866
H -1.231410 6.135806 0.186237
H -0.003313 2.653571 -1.642707
H -2.320629 1.721607 -1.591525
C 1.589799 2.383347 -6.018839
C 1.813511 3.563060 -5.871245
C 1.968112 4.961690 -5.815774
C 2.194192 5.666193 -6.984847
C 2.233223 7.064510 -6.989523
C 2.014784 7.780107 -5.838812
C 1.792657 7.106194 -4.624129
C 1.532760 7.781882 -3.410474
C 1.355104 7.069270 -2.260831
N 1.465726 5.718360 -2.228780
C 1.671970 5.049424 -3.346505
C 1.808660 5.681105 -4.592709
H 2.326510 5.127494 -7.910601
H 2.414820 7.580124 -7.920089
H 2.008643 8.858721 -5.852309
H 1.473218 8.858497 -3.407123
H 1.117052 7.555443 -1.317079
H 1.749941 3.967336 -3.274210
C 1.232754 1.029722 -6.198973
C 1.257849 0.463827 -7.477741
C 0.829719 -0.838607 -7.658121
C 0.371350 -1.586714 -6.586819
C 0.345555 -1.037234 -5.302630
C 0.789345 0.270992 -5.117590
H 1.602586 1.048156 -8.316972
H 0.843079 -1.272574 -8.646419
H 0.002309 -2.585029 -6.760999
H 0.817249 0.706730 -4.131777
C -0.151745 -1.807194 -4.158658
C 0.017286 -3.192193 -4.062320
C -0.420422 -3.857242 -2.935205
N -0.992905 -3.217087 -1.911496
C -1.201950 -1.897433 -1.998297
C -0.811392 -1.169357 -3.099179
H 0.510702 -3.742356 -4.846871
H -0.308930 -4.932504 -2.829575
H -1.698689 -1.438617 -1.144649
H -1.025431 -0.114349 -3.153585
C 6.283301 1.264864 -0.455718
C 6.420239 2.466790 -0.433748
C 6.672051 3.844025 -0.283498
C 7.978230 4.290407 -0.190738
C 8.265228 5.632497 0.079824
C 7.258257 6.539978 0.294993
C 5.914690 6.134048 0.199525
C 4.831434 7.009460 0.438354
C 3.550960 6.559229 0.300794
N 3.273490 5.296838 -0.108005
C 4.256263 4.440097 -0.306902
C 5.606441 4.782948 -0.134133
H 8.788171 3.587639 -0.313525
H 9.296458 5.945106 0.141897
H 7.482983 7.566094 0.540211
H 5.029523 8.027854 0.732579
H 2.694482 7.195412 0.513280
H 3.987825 3.437410 -0.631109
C 6.119290 -0.135096 -0.380526
C 7.241555 -0.967080 -0.313183
C 7.073796 -2.330680 -0.156836
C 5.806559 -2.880429 -0.060398
C 4.675776 -2.062952 -0.132246
C 4.843474 -0.689959 -0.303701
H 8.230921 -0.540425 -0.374778
H 7.940359 -2.971532 -0.098268
H 5.703833 -3.941002 0.105574
H 3.988402 -0.040795 -0.403472
C 3.327102 -2.624951 -0.012333
C 3.006298 -3.900831 -0.487324
C 1.708320 -4.359188 -0.391703
N 0.729714 -3.614047 0.130001
C 1.019346 -2.403860 0.624338
C 2.294507 -1.887152 0.582555
H 3.756468 -4.520057 -0.951519
H 1.425768 -5.346403 -0.745742
H 0.184259 -1.856356 1.059323
H 2.501936 -0.924146 1.019914
