372
cid:69, pot: -212.4226546242901
Pd -1.033579 5.411988 3.009240
Pd 1.300054 -6.670303 -3.421217
C 5.596029 -1.786094 0.718914
C 5.795843 -2.856259 0.191068
C 5.973856 -4.126664 -0.387599
C 7.090888 -4.893123 -0.102861
C 7.236478 -6.180193 -0.632761
C 6.266286 -6.729669 -1.431408
C 5.114124 -5.979541 -1.749528
C 4.060180 -6.502153 -2.523325
N 2.985001 -5.804008 -2.821566
C 2.878582 -4.513167 -2.416378
C 3.831099 -3.921006 -1.637923
C 4.971358 -4.653520 -1.250444
H 7.857666 -4.492547 0.542829
H 8.123204 -6.746407 -0.392655
H 6.373224 -7.729840 -1.819897
H 4.107101 -7.522744 -2.894962
H 1.986479 -3.987824 -2.751976
H 3.726277 -2.900441 -1.306797
C 5.341346 -0.545806 1.334324
C 6.286141 0.026389 2.194029
C 6.029805 1.238102 2.796819
C 4.821359 1.903348 2.555959
C 3.875103 1.328103 1.699927
C 4.132600 0.119070 1.094570
H 7.218818 -0.485559 2.378509
H 6.760024 1.682386 3.456630
H 2.950015 1.847909 1.509497
H 3.408385 -0.322869 0.428820
C 4.580588 3.156436 3.150035
C 4.382402 4.246985 3.636482
C 4.244663 5.548215 4.151814
C 5.350907 6.205958 4.661193
C 5.261202 7.526560 5.111133
C 4.076551 8.217501 5.043690
C 2.923399 7.586697 4.543657
C 1.677102 8.243938 4.431851
C 0.591854 7.566619 3.957389
N 0.655681 6.257099 3.610932
C 1.805771 5.615900 3.677731
C 2.990239 6.229121 4.114599
H 6.299874 5.693120 4.699294
H 6.144689 8.007663 5.502271
H 4.016517 9.243867 5.370092
H 1.597257 9.279413 4.721773
H -0.376280 8.049488 3.837027
H 1.811535 4.567763 3.386665
C 0.567980 -4.482294 3.941157
C 0.824422 -5.525322 3.384436
C 1.172746 -6.707153 2.703065
C 1.687140 -7.799434 3.379470
C 2.090613 -8.949398 2.690846
C 2.006872 -9.020437 1.324036
C 1.479074 -7.931527 0.597682
C 1.404591 -7.924210 -0.808275
N 0.907182 -6.912183 -1.487607
C 0.400973 -5.837409 -0.832288
C 0.452641 -5.732045 0.528137
C 1.028958 -6.770190 1.287973
H 1.786348 -7.758877 4.453577
H 2.484793 -9.782436 3.252159
H 2.338883 -9.900251 0.796362
H 1.772346 -8.772789 -1.380310
H -0.049147 -5.071932 -1.460573
H 0.060794 -4.864770 1.034860
C 0.263731 -3.255320 4.561800
C -0.047197 -3.204795 5.925246
C -0.365732 -2.002772 6.517751
C -0.374908 -0.823865 5.761564
C -0.042915 -0.872909 4.402832
C 0.269051 -2.074805 3.808854
H -0.045086 -4.114145 6.507613
H -0.615561 -1.963981 7.567550
H -0.037585 0.037706 3.825933
H 0.522084 -2.118107 2.761420
C -0.751400 0.388373 6.369799
C -1.117878 1.417724 6.890883
C -1.620195 2.554188 7.549362
C -1.994122 2.465422 8.879371
C -2.559466 3.557135 9.544860
C -2.778689 4.745866 8.893494
C -2.409189 4.885196 7.543800
C -2.623661 6.073742 6.809672
C -2.227663 6.148003 5.506152
N -1.601244 5.118579 4.884699
C -1.401659 3.985936 5.529269
C -1.800653 3.791861 6.860773
H -1.854083 1.534240 9.406730
H -2.837183 3.451291 10.582412
H -3.234395 5.579538 9.404177
H -3.103414 6.912108 7.288850
H -2.398019 7.039887 4.905841
H -0.898578 3.185928 4.990068
C -5.268534 0.674651 -1.367201
C -5.456354 1.752917 -0.851659
C -5.618395 3.030210 -0.282187
C -6.690486 3.836205 -0.622973
C -6.814336 5.129610 -0.102350
C -5.866837 5.644004 0.745019
C -4.763040 4.850788 1.124898
C -3.735173 5.332731 1.957603
N -2.707782 4.592785 2.318110
C -2.630395 3.297900 1.920313
C -3.558663 2.742642 1.086971
C -4.644025 3.519529 0.633473
H -7.436997 3.463486 -1.307747
H -7.665275 5.728232 -0.388782
H -5.955607 6.648658 1.126618
H -3.763126 6.355689 2.325451
H -1.785631 2.735070 2.311205
H -3.476078 1.716645 0.766057
C -5.022995 -0.582370 -1.952814
C -3.718662 -1.090209 -1.988506
C -3.471162 -2.325231 -2.543719
C -4.522668 -3.084817 -3.069300
C -5.825020 -2.569958 -3.046899
C -6.072168 -1.331204 -2.497368
H -2.912230 -0.502858 -1.579167
H -2.467709 -2.717677 -2.574356
H -6.635281 -3.152993 -3.458457
H -7.077323 -0.936972 -2.475839
C -4.294032 -4.372916 -3.588580
C -4.114472 -5.498076 -3.997458
C -4.000166 -6.833635 -4.422822
C -5.126850 -7.514863 -4.850534
C -5.060430 -8.862575 -5.215881
C -3.878121 -9.557201 -5.143209
C -2.705955 -8.905397 -4.720457
C -1.461480 -9.565454 -4.605395
C -0.358422 -8.870477 -4.203203
N -0.404082 -7.543075 -3.931113
C -1.550399 -6.896110 -4.006803
C -2.750503 -7.522642 -4.376880
H -6.072928 -6.997228 -4.893523
H -5.959254 -9.360573 -5.546076
H -3.834886 -10.602438 -5.405829
H -1.397350 -10.617227 -4.834575
H 0.609870 -9.352976 -4.082483
H -1.540482 -5.832920 -3.776236
C -0.016818 3.253941 -4.322255
C -0.256197 4.304161 -3.771247
C -0.589916 5.494820 -3.099246
C -1.026745 6.610333 -3.792903
C -1.414679 7.773064 -3.117566
C -1.395561 7.834590 -1.747604
C -0.952458 6.720585 -1.003323
C -0.954117 6.701500 0.404584
N -0.540573 5.663739 1.100625
C -0.048758 4.570601 0.464284
C -0.030109 4.476801 -0.897618
C -0.516314 5.545070 -1.678356
H -1.073960 6.578963 -4.870857
H -1.745220 8.624738 -3.692015
H -1.715727 8.725401 -1.231251
H -1.313752 7.561722 0.963759
H 0.325442 3.779568 1.111308
H 0.346027 3.595447 -1.391495
C 0.251724 2.020893 -4.946178
C 0.572813 0.899865 -4.171076
C 0.828242 -0.310073 -4.775390
C 0.772774 -0.427348 -6.169036
C 0.450680 0.693295 -6.944440
C 0.191472 1.903345 -6.339714
H 0.622032 0.994780 -3.097913
H 1.086169 -1.172766 -4.182487
H 0.408860 0.602810 -8.019661
H -0.055290 2.767776 -6.937808
C 1.068141 -1.652286 -6.796505
C 1.350269 -2.699337 -7.334291
C 1.757962 -3.861631 -8.013025
C 2.050688 -3.800758 -9.364472
C 2.529905 -4.921030 -10.049950
C 2.742726 -6.110861 -9.398495
C 2.449406 -6.222928 -8.027729
C 2.659729 -7.412074 -7.293265
C 2.333767 -7.459620 -5.969215
N 1.778616 -6.402496 -5.326170
C 1.589634 -5.267954 -5.970666
C 1.925964 -5.100074 -7.322899
H 1.917615 -2.869146 -9.892876
H 2.747379 -4.836514 -11.103827
H 3.134675 -6.966504 -9.925598
H 3.080033 -8.272629 -7.788787
H 2.504463 -8.351874 -5.369596
H 1.145188 -4.445202 -5.414777
Pd 1.865245 3.517837 5.970597
Pd -1.822941 -3.289606 -5.554754
C -5.477348 1.250637 -0.506662
C -5.795329 0.689000 -1.529983
C -6.111830 0.067222 -2.752175
C -7.279450 0.373123 -3.429986
C -7.563046 -0.202219 -4.673870
C -6.682102 -1.068498 -5.269259
C -5.482449 -1.410002 -4.609292
C -4.514683 -2.254462 -5.186380
N -3.395388 -2.574518 -4.572292
C -3.155954 -2.121705 -3.315565
C -4.016349 -1.274569 -2.678330
C -5.199529 -0.863672 -3.324995
H -7.978087 1.070835 -2.993658
H -8.485537 0.056347 -5.170528
H -6.895272 -1.492622 -6.237433
H -4.669228 -2.665439 -6.180963
H -2.235999 -2.477534 -2.855754
H -3.805999 -0.906772 -1.687102
C -5.085652 1.904113 0.677187
C -5.936581 2.831111 1.290193
C -5.546384 3.470710 2.445956
C -4.294933 3.200093 3.013026
C -3.442645 2.276650 2.396658
C -3.833895 1.634568 1.243780
H -6.902392 3.038612 0.854035
H -6.204077 4.182580 2.922035
H -2.483962 2.063884 2.841514
H -3.182229 0.917152 0.770834
C -3.916876 3.833486 4.211771
C -3.600477 4.354783 5.257469
C -3.324093 4.916504 6.516736
C -4.343441 5.505078 7.244979
C -4.115980 6.004689 8.530706
C -2.878257 5.909399 9.117507
C -1.809426 5.328960 8.411552
C -0.515372 5.184953 8.961415
C 0.482845 4.631373 8.213917
N 0.286700 4.234317 6.932236
C -0.912185 4.329437 6.391931
C -2.016533 4.847560 7.086070
H -5.331967 5.567248 6.816081
H -4.934699 6.457320 9.069067
H -2.712140 6.274818 10.118773
H -0.330331 5.513450 9.971615
H 1.484148 4.485001 8.615048
H -1.024723 3.995675 5.362666
C -0.574380 4.113753 -3.777341
C -0.947570 3.527101 -4.767436
C -1.430085 2.814742 -5.881883
C -2.010091 3.469028 -6.954602
C -2.544937 2.753390 -8.032150
C -2.528129 1.382303 -8.047778
C -1.937305 0.677415 -6.977410
C -1.924397 -0.728976 -6.912513
N -1.368655 -1.388788 -5.918086
C -0.739751 -0.714387 -4.922733
C -0.721857 0.650206 -4.875482
C -1.354948 1.392933 -5.892652
H -2.057889 4.547414 -6.954489
H -2.987117 3.297854 -8.852090
H -2.960568 0.835114 -8.870139
H -2.391570 -1.317547 -7.698564
H -0.250897 -1.331137 -4.171847
H -0.231902 1.173169 -4.069873
C -0.134344 4.769500 -2.611348
C 0.239542 6.117405 -2.650539
C 0.690341 6.743378 -1.509289
C 0.771876 6.037230 -0.302549
C 0.377353 4.695072 -0.260287
C -0.066924 4.067378 -1.401835
H 0.181568 6.660996 -3.581756
H 0.988585 7.780723 -1.540501
H 0.428325 4.157395 0.672714
H -0.368665 3.032308 -1.374920
C 1.281956 6.676571 0.843068
C 1.761835 7.221845 1.811500
C 2.392499 7.902103 2.868349
C 2.815122 9.207831 2.686605
C 3.504817 9.890308 3.693053
C 3.800851 9.279104 4.886433
C 3.386296 7.955564 5.119047
C 3.673947 7.261943 6.316485
C 3.229252 5.983156 6.484550
N 2.486299 5.350193 5.543331
C 2.214536 5.956011 4.404350
C 2.652718 7.257605 4.115587
H 2.615500 9.702208 1.748161
H 3.817298 10.908025 3.516083
H 4.351501 9.801535 5.652839
H 4.247541 7.752006 7.086794
H 3.452282 5.412896 7.384463
H 1.618530 5.408759 3.676996
C 5.461712 -1.249278 1.084861
C 5.767966 -0.698938 2.117863
C 6.068758 -0.085396 3.348738
C 7.192772 -0.443292 4.072340
C 7.454888 0.124051 5.324869
C 6.595541 1.036438 5.881185
C 5.442820 1.435418 5.171177
C 4.499971 2.335726 5.702914
N 3.427233 2.713963 5.040190
C 3.216623 2.266899 3.776543
C 4.053806 1.367695 3.180722
C 5.183450 0.895462 3.879326
H 7.872003 -1.177915 3.667260
H 8.342622 -0.177707 5.858994
H 6.790696 1.454695 6.855642
H 4.635686 2.743987 6.701619
H 2.342835 2.674075 3.272740
H 3.865544 1.008836 2.181630
C 5.078938 -1.874156 -0.117747
C 3.734017 -1.868385 -0.507205
C 3.352596 -2.461920 -1.689152
C 4.307619 -3.068300 -2.513228
C 5.650627 -3.086918 -2.115984
C 6.031768 -2.498867 -0.930104
H 3.002307 -1.396846 0.129319
H 2.317638 -2.460693 -1.990346
H 6.386428 -3.560702 -2.748454
H 7.068187 -2.509213 -0.626812
C 3.941801 -3.629056 -3.751274
C 3.644250 -4.075270 -4.836564
C 3.392072 -4.549728 -6.136145
C 4.433228 -5.058811 -6.893267
C 4.230197 -5.476275 -8.211943
C 2.994758 -5.375917 -8.802787
C 1.905466 -4.870901 -8.070741
C 0.613092 -4.723864 -8.623788
C -0.404424 -4.240825 -7.853786
N -0.227990 -3.916289 -6.549298
C 0.967235 -4.019891 -6.002603
C 2.088898 -4.472661 -6.714356
H 5.419081 -5.125545 -6.459146
H 5.065362 -5.869470 -8.771228
H 2.846457 -5.679326 -9.827205
H 0.444907 -4.993177 -9.654314
H -1.405839 -4.094008 -8.254636
H 1.062853 -3.745152 -4.954220
C 0.337497 -3.839795 4.246612
C 0.694083 -3.257749 5.245575
C 1.162450 -2.553646 6.370499
C 1.666587 -3.220523 7.473921
C 2.186558 -2.516817 8.566178
C 2.233317 -1.146216 8.566626
C 1.725298 -0.428418 7.462894
C 1.787197 0.975738 7.379630
N 1.313297 1.647098 6.351410
C 0.697945 0.990245 5.335744
C 0.611043 -0.371916 5.306112
C 1.156244 -1.130006 6.362155
H 1.663309 -4.299888 7.487701
H 2.566508 -3.070628 9.410896
H 2.654488 -0.609190 9.401468
H 2.246766 1.552358 8.178543
H 0.283163 1.621059 4.551848
H 0.136022 -0.883453 4.484590
C -0.067714 -4.500837 3.071612
C -0.453601 -3.758465 1.948860
C -0.842830 -4.399572 0.794773
C -0.859476 -5.797989 0.736830
C -0.472618 -6.540651 1.859112
C -0.079621 -5.899355 3.012936
H -0.446859 -2.681179 1.998638
H -1.150702 -3.831316 -0.068068
H -0.486468 -7.619533 1.814383
H 0.217094 -6.472173 3.878796
C -1.290816 -6.460911 -0.427663
C -1.689059 -7.027577 -1.420292
C -2.228786 -7.733653 -2.510237
C -2.574050 -9.065848 -2.362330
C -3.181491 -9.773562 -3.403867
C -3.471261 -9.162592 -4.598979
C -3.129128 -7.813265 -4.798699
C -3.412716 -7.119629 -5.997109
C -3.034374 -5.815770 -6.133397
N -2.358936 -5.156772 -5.159400
C -2.097511 -5.761848 -4.017554
C -2.476597 -7.088270 -3.759320
H -2.381392 -9.560902 -1.422909
H -3.436679 -10.811388 -3.252671
H -3.961170 -9.705451 -5.392020
H -3.929866 -7.629719 -6.794015
H -3.257805 -5.246214 -7.033598
H -1.557076 -5.194228 -3.263156
