372
cid:69, pot: -243.62697255638068
Pd 0.920245 6.753413 0.746097
Pd -1.812565 -6.712189 -1.250825
C 3.933073 -1.968837 -3.235725
C 3.717464 -3.150382 -3.381544
C 3.457697 -4.529825 -3.482189
C 4.445966 -5.418213 -3.869992
C 4.201530 -6.795546 -3.911751
C 2.982738 -7.308459 -3.547747
C 1.946872 -6.436297 -3.150650
C 0.689602 -6.900908 -2.719267
N -0.277999 -6.089113 -2.348995
C -0.100364 -4.745268 -2.414558
C 1.089872 -4.192904 -2.791611
C 2.168674 -5.029695 -3.142145
H 5.421379 -5.041496 -4.138281
H 4.994784 -7.457327 -4.223724
H 2.805982 -8.372075 -3.561170
H 0.486185 -7.967860 -2.672849
H -0.966569 -4.143586 -2.145992
H 1.224533 -3.123728 -2.821867
C 4.170264 -0.593933 -3.047872
C 5.416608 -0.040004 -3.362401
C 5.644475 1.305109 -3.172507
C 4.632013 2.125993 -2.660673
C 3.387552 1.570318 -2.341863
C 3.158438 0.226918 -2.535016
H 6.196911 -0.672477 -3.758776
H 6.604219 1.734091 -3.419135
H 2.607562 2.207338 -1.957061
H 2.198186 -0.202436 -2.297131
C 4.862088 3.505268 -2.500074
C 5.047153 4.696194 -2.387589
C 5.285408 6.082000 -2.364919
C 6.375337 6.602737 -3.040757
C 6.596194 7.981964 -3.099407
C 5.727557 8.863001 -2.503933
C 4.612191 8.379559 -1.796864
C 3.670811 9.230653 -1.174638
C 2.621663 8.695212 -0.485994
N 2.460072 7.355947 -0.347397
C 3.303142 6.529057 -0.933735
C 4.393128 6.974678 -1.697417
H 7.057651 5.931909 -3.540186
H 7.456800 8.352152 -3.635425
H 5.888341 9.927527 -2.571040
H 3.790870 10.299324 -1.253170
H 1.866595 9.322191 -0.015142
H 3.133334 5.463067 -0.798920
C 3.086507 -2.762445 3.213084
C 2.886081 -3.936390 3.000268
C 2.659893 -5.290064 2.686063
C 3.550869 -6.274830 3.075422
C 3.354768 -7.611052 2.707368
C 2.285042 -7.981127 1.933443
C 1.348106 -7.008530 1.523455
C 0.252229 -7.315110 0.694373
N -0.626313 -6.410789 0.315594
C -0.520442 -5.133069 0.759501
C 0.521737 -4.725353 1.541907
C 1.513869 -5.651664 1.922512
H 4.414416 -6.005286 3.664341
H 4.069337 -8.351850 3.031427
H 2.149954 -9.008355 1.634615
H 0.106706 -8.330234 0.332570
H -1.319380 -4.460857 0.454325
H 0.601839 -3.702839 1.874364
C 3.295073 -1.388951 3.443833
C 4.099878 -0.959312 4.504924
C 4.279002 0.386766 4.735946
C 3.662131 1.333040 3.907838
C 2.874824 0.901649 2.834141
C 2.690216 -0.443324 2.606868
H 4.571706 -1.688430 5.146671
H 4.891719 0.719575 5.560453
H 2.411974 1.631742 2.190094
H 2.081580 -0.780518 1.782925
C 3.813880 2.704238 4.187134
C 3.914958 3.879111 4.460728
C 4.023254 5.215450 4.884919
C 4.766859 5.517553 6.012930
C 4.840159 6.825724 6.500415
C 4.160754 7.848342 5.885533
C 3.397483 7.590620 4.732877
C 2.659687 8.592757 4.062829
C 1.951102 8.278584 2.940022
N 1.948753 7.027586 2.417228
C 2.607709 6.060694 3.024749
C 3.340013 6.268068 4.203939
H 5.290662 4.726907 6.528030
H 5.431079 7.023763 7.381572
H 4.202580 8.852745 6.276554
H 2.661844 9.599127 4.449930
H 1.354414 9.020941 2.413028
H 2.574892 5.072054 2.571588
C -4.966491 2.082159 2.494289
C -4.752365 3.266106 2.621322
C -4.489067 4.646719 2.702647
C -5.490669 5.550512 3.011021
C -5.238894 6.927303 3.029443
C -3.997559 7.422832 2.722963
C -2.946249 6.533914 2.412415
C -1.660887 6.978892 2.049074
N -0.677133 6.151568 1.764859
C -0.868470 4.811478 1.857106
C -2.084871 4.276474 2.171099
C -3.177981 5.128926 2.427341
H -6.482777 5.187052 3.231773
H -6.044063 7.601836 3.276820
H -3.813993 8.485425 2.717673
H -1.447733 8.043372 1.985957
H 0.008825 4.196648 1.668589
H -2.226545 3.209019 2.225359
C -5.186930 0.700157 2.336776
C -4.322673 -0.055070 1.534809
C -4.520090 -1.409443 1.388182
C -5.581392 -2.041898 2.045835
C -6.454502 -1.283501 2.835908
C -6.261231 0.073021 2.977583
H -3.504272 0.436006 1.032879
H -3.857490 -1.992867 0.769758
H -7.277286 -1.770217 3.337873
H -6.931814 0.656360 3.590977
C -5.762490 -3.434531 1.951495
C -5.900859 -4.636473 1.911535
C -6.086414 -6.029158 1.972514
C -7.128262 -6.549006 2.721336
C -7.300614 -7.929532 2.857950
C -6.429499 -8.812378 2.268559
C -5.359798 -8.330874 1.493037
C -4.417096 -9.183516 0.875018
C -3.410553 -8.651776 0.122947
N -3.292897 -7.316564 -0.080717
C -4.140300 -6.487031 0.495582
C -5.190485 -6.926536 1.316372
H -7.812483 -5.875343 3.214162
H -8.125425 -8.298439 3.448298
H -6.553270 -9.876543 2.393426
H -4.501785 -10.250309 1.007842
H -2.655128 -9.278351 -0.347909
H -4.005653 -5.424039 0.307035
C -3.767187 2.781776 -3.911787
C -3.559922 3.957773 -3.716987
C -3.331324 5.314698 -3.421825
C -4.184346 6.301830 -3.884720
C -3.988286 7.643945 -3.540038
C -2.958932 8.018785 -2.714889
C -2.064128 7.043649 -2.225259
C -1.017108 7.354901 -1.336754
N -0.181025 6.446981 -0.879496
C -0.281629 5.159145 -1.295573
C -1.278476 4.747853 -2.132867
C -2.227280 5.679694 -2.600401
H -5.016450 6.029604 -4.516143
H -4.670940 8.386518 -3.923663
H -2.824815 9.051429 -2.435012
H -0.876211 8.376449 -0.992393
H 0.481654 4.482371 -0.916398
H -1.358925 3.718131 -2.441702
C -4.001762 1.408964 -4.117125
C -3.165130 0.459042 -3.518561
C -3.394809 -0.884556 -3.709302
C -4.463748 -1.310595 -4.506132
C -5.301260 -0.360906 -5.104047
C -5.073799 0.983659 -4.910373
H -2.337852 0.790176 -2.911047
H -2.746414 -1.618602 -3.258681
H -6.125313 -0.689805 -5.719513
H -5.718679 1.715886 -5.372782
C -4.683399 -2.681951 -4.735410
C -4.852443 -3.860493 -4.953556
C -5.037867 -5.206984 -5.314666
C -5.850443 -5.524194 -6.389329
C -5.994895 -6.846770 -6.818822
C -5.319648 -7.869117 -6.198957
C -4.491002 -7.595958 -5.096085
C -3.755700 -8.597747 -4.422668
C -2.986219 -8.267541 -3.345411
N -2.921401 -6.999573 -2.868688
C -3.573308 -6.033004 -3.484347
C -4.361760 -6.257455 -4.623557
H -6.370395 -4.734793 -6.910209
H -6.637270 -7.056718 -7.660469
H -5.415319 -8.885353 -6.547811
H -3.808763 -9.617010 -4.770576
H -2.389804 -9.010480 -2.818981
H -3.489895 -5.030698 -3.069750
Pd -0.539589 6.969507 -0.302410
Pd -0.036216 -6.905261 -0.425355
C -4.966576 -1.659111 2.335295
C -4.945912 -2.868137 2.295760
C -4.912968 -4.270360 2.180771
C -6.036156 -5.036737 2.440486
C -6.017303 -6.425448 2.267803
C -4.892694 -7.066053 1.814073
C -3.725082 -6.321729 1.542020
C -2.553835 -6.911128 1.028693
N -1.463683 -6.218722 0.774718
C -1.423282 -4.889937 1.047533
C -2.513557 -4.217420 1.519773
C -3.717286 -4.913224 1.751762
H -6.941365 -4.553493 2.775674
H -6.910553 -6.990691 2.484868
H -4.889746 -8.133589 1.662275
H -2.524427 -7.977074 0.816857
H -0.468267 -4.401745 0.863216
H -2.474601 -3.157985 1.715053
C -4.976870 -0.251606 2.363174
C -6.121477 0.441052 2.774613
C -6.127364 1.818239 2.795779
C -4.989695 2.533930 2.402807
C -3.847229 1.840548 1.986821
C -3.839832 0.464282 1.969186
H -6.998280 -0.110686 3.079379
H -7.008390 2.353331 3.117401
H -2.970156 2.394936 1.694183
H -2.958469 -0.072594 1.656142
C -4.992614 3.940354 2.458176
C -4.982037 5.148588 2.531680
C -4.993658 6.541562 2.724455
C -5.993639 7.121276 3.485897
C -5.990174 8.492598 3.757760
C -4.983759 9.302924 3.293137
C -3.952244 8.760237 2.506275
C -2.878498 9.533676 2.009766
C -1.920958 8.948106 1.233964
N -1.975524 7.637573 0.889933
C -2.947905 6.877355 1.353447
C -3.961116 7.370433 2.190191
H -6.781171 6.500626 3.885382
H -6.786406 8.910063 4.355040
H -4.971717 10.356476 3.524528
H -2.825786 10.582940 2.252504
H -1.069075 9.509928 0.855031
H -2.950384 5.831260 1.054900
C -4.180026 -1.581743 -4.169259
C -4.173943 -2.791246 -4.141230
C -4.172646 -4.195595 -4.040886
C -5.205772 -4.952670 -4.565017
C -5.232006 -6.343385 -4.408398
C -4.245362 -6.994960 -3.713855
C -3.169141 -6.260386 -3.171843
C -2.147187 -6.862714 -2.413474
N -1.139137 -6.180546 -1.911911
C -1.032336 -4.849661 -2.153578
C -1.985626 -4.164542 -2.851087
C -3.109233 -4.849643 -3.356287
H -6.007334 -4.460575 -5.094680
H -6.052524 -6.900898 -4.832892
H -4.281212 -8.063999 -3.577594
H -2.171476 -7.931277 -2.213156
H -0.139381 -4.369671 -1.759333
H -1.895889 -3.103754 -3.022042
C -4.161768 -0.173689 -4.184337
C -4.873809 0.537255 -5.156822
C -4.830904 1.913946 -5.176742
C -4.079879 2.610344 -4.221491
C -3.385540 1.898531 -3.236586
C -3.422810 0.522719 -3.220284
H -5.449036 0.000702 -5.896580
H -5.371886 2.463328 -5.932737
H -2.819026 2.437269 -2.494285
H -2.886523 -0.030205 -2.465424
C -4.005332 4.014518 -4.285630
C -3.912500 5.218216 -4.374866
C -3.798900 6.603520 -4.588046
C -4.470247 7.190554 -5.646937
C -4.325930 8.552483 -5.927496
C -3.498256 9.345935 -5.172016
C -2.800611 8.795242 -4.082176
C -1.919249 9.550898 -3.276016
C -1.284358 8.958588 -2.223695
N -1.489978 7.658361 -1.898666
C -2.288592 6.914822 -2.638609
C -2.963379 7.415519 -3.762664
H -5.108256 6.582889 -6.270333
H -4.866365 8.975643 -6.760309
H -3.372925 10.391865 -5.404074
H -1.754550 10.591685 -3.504459
H -0.582381 9.505528 -1.596904
H -2.420987 5.876274 -2.342568
C 4.538785 1.734723 -2.819852
C 4.519708 2.943021 -2.761454
C 4.483290 4.343942 -2.627068
C 5.621056 5.111070 -2.806231
C 5.594612 6.496847 -2.610442
C 4.445663 7.133001 -2.215930
C 3.261161 6.387951 -2.031766
C 2.059897 6.973232 -1.588285
N 0.952319 6.281488 -1.421568
C 0.926402 4.958192 -1.720304
C 2.044536 4.288798 -2.127897
C 3.263700 4.983137 -2.264569
H 6.544300 4.630737 -3.092616
H 6.500883 7.062674 -2.761875
H 4.435596 8.197666 -2.045706
H 2.020223 8.035749 -1.360270
H -0.040694 4.471201 -1.616954
H 2.013040 3.233567 -2.346763
C 4.531798 0.327685 -2.878561
C 3.547384 -0.392311 -2.190767
C 3.522256 -1.767053 -2.255713
C 4.475776 -2.453905 -3.015911
C 5.469282 -1.734032 -3.691595
C 5.498754 -0.358676 -3.621515
H 2.812689 0.141474 -1.609210
H 2.766774 -2.323861 -1.725555
H 6.209015 -2.264284 -4.272558
H 6.262070 0.196031 -4.146782
C 4.429011 -3.855293 -3.138187
C 4.371473 -5.055626 -3.284441
C 4.330991 -6.433992 -3.560270
C 5.284593 -6.993949 -4.393035
C 5.233997 -8.346872 -4.741518
C 4.224885 -9.157505 -4.283211
C 3.237327 -8.634586 -3.429527
C 2.162061 -9.408754 -2.937411
C 1.245220 -8.843300 -2.100015
N 1.341660 -7.553681 -1.692923
C 2.318607 -6.793215 -2.146175
C 3.294242 -7.265134 -3.037887
H 6.074384 -6.371888 -4.785580
H 5.995753 -8.748967 -5.391866
H 4.177112 -10.195924 -4.571109
H 2.075427 -10.442145 -3.233040
H 0.392987 -9.404713 -1.721090
H 2.354657 -5.763941 -1.795422
C 3.389464 1.629108 3.632506
C 3.376737 2.838901 3.622680
C 3.373332 4.243895 3.541655
C 4.368508 4.998099 4.139332
C 4.395431 6.391037 4.006682
C 3.450128 7.048607 3.261876
C 2.415943 6.316896 2.640105
C 1.443743 6.925080 1.823183
N 0.477973 6.244492 1.242987
C 0.364686 4.908968 1.455660
C 1.271920 4.219182 2.207350
C 2.352644 4.903343 2.799911
H 5.138099 4.501955 4.710997
H 5.184058 6.946320 4.490774
H 3.487515 8.119916 3.145070
H 1.473407 7.996475 1.641009
H -0.492965 4.430087 0.987075
H 1.181703 3.154949 2.353919
C 3.397331 0.221404 3.622298
C 2.425998 -0.478380 2.896067
C 2.433888 -1.854594 2.875931
C 3.410448 -2.564113 3.584535
C 4.382577 -1.864568 4.310018
C 4.377082 -0.487366 4.327400
H 1.670358 0.070678 2.356981
H 1.681297 -2.396799 2.326551
H 5.135303 -2.412283 4.857367
H 5.125786 0.051899 4.888212
C 3.403483 -3.971708 3.598341
C 3.377804 -5.181366 3.631340
C 3.339449 -6.579351 3.779645
C 4.077113 -7.184014 4.782670
C 4.001382 -8.562584 5.002789
C 3.177876 -9.355728 4.242327
C 2.417620 -8.787047 3.204907
C 1.538866 -9.542300 2.395511
C 0.845840 -8.931467 1.391338
N 0.992004 -7.611775 1.115264
C 1.783485 -6.868571 1.863247
C 2.511476 -7.388791 2.944536
H 4.711006 -6.577919 5.411587
H 4.591180 -8.999632 5.794111
H 3.104356 -10.415390 4.430300
H 1.422764 -10.597872 2.582549
H 0.144045 -9.479096 0.765029
H 1.867708 -5.814446 1.608087
