308
cid:69, pot: -186.27441855960006
Pd -1.517603 4.187039 -0.206337
Pd 0.302598 -4.925486 -0.768818
C 5.386712 -1.656363 -1.689512
C 5.413883 -2.861422 -1.793610
C 5.515016 -4.241323 -2.055771
C 6.729966 -4.769060 -2.454844
C 6.843830 -6.108988 -2.839973
C 5.745279 -6.931575 -2.865478
C 4.491501 -6.441631 -2.456805
C 3.316557 -7.226322 -2.486540
C 2.136969 -6.699739 -2.048091
N 2.056240 -5.447950 -1.533625
C 3.122848 -4.672493 -1.522191
C 4.371326 -5.094869 -2.005359
H 7.600326 -4.131584 -2.484298
H 7.808627 -6.486694 -3.142580
H 5.829011 -7.954205 -3.198372
H 3.364702 -8.236192 -2.861305
H 1.207229 -7.263274 -2.091513
H 3.011100 -3.674895 -1.104380
C 5.328549 -0.246296 -1.663146
C 6.481877 0.505862 -1.908874
C 6.400779 1.885249 -1.961170
C 5.188886 2.529519 -1.778185
C 4.029193 1.792156 -1.526237
C 4.112161 0.402384 -1.460284
H 7.425752 0.006379 -2.064330
H 7.290088 2.464818 -2.157398
H 5.144453 3.603486 -1.866898
H 3.241065 -0.189005 -1.228378
C 2.733974 2.454816 -1.346882
C 2.617104 3.713486 -0.748292
C 1.366902 4.264120 -0.553580
N 0.247789 3.624737 -0.905817
C 0.336211 2.436717 -1.516918
C 1.548698 1.833506 -1.763360
H 3.491582 4.246263 -0.412023
H 1.240238 5.240959 -0.096017
H -0.609387 1.979756 -1.805102
H 1.588148 0.892908 -2.288472
C 1.928615 -2.768041 4.696574
C 2.035541 -3.950047 4.461886
C 2.077861 -5.350368 4.319743
C 2.510470 -6.128635 5.378472
C 2.452286 -7.525137 5.319274
C 1.932291 -8.163863 4.221233
C 1.490781 -7.413806 3.115932
C 0.918715 -8.006398 1.967670
C 0.537481 -7.223245 0.917499
N 0.732133 -5.881705 0.914228
C 1.230625 -5.287857 1.981072
C 1.598812 -5.992664 3.137685
H 2.883837 -5.649399 6.270450
H 2.801601 -8.099913 6.163366
H 1.854337 -9.239420 4.193819
H 0.784969 -9.075794 1.935522
H 0.059921 -7.642404 0.034516
H 1.366756 -4.209721 1.935440
C 1.709263 -1.407185 5.000802
C 2.020541 -0.917032 6.273227
C 1.726770 0.396176 6.591185
C 1.122387 1.229303 5.664999
C 0.811184 0.756102 4.387689
C 1.119360 -0.563590 4.061726
H 2.479646 -1.567437 7.001787
H 1.961107 0.772027 7.575520
H 0.863496 2.236093 5.952330
H 0.927820 -0.943165 3.070934
C 0.154196 1.618224 3.400711
C 0.391234 2.995302 3.339140
C -0.216645 3.750136 2.356891
N -1.021513 3.205263 1.440113
C -1.292653 1.895437 1.500862
C -0.739605 1.081981 2.463705
H 1.064635 3.469603 4.034142
H -0.058626 4.822165 2.283486
H -1.976004 1.516547 0.742169
H -1.005103 0.038178 2.506635
C -6.602170 0.917406 0.709323
C -6.627446 2.121888 0.819732
C -6.726951 3.500503 1.089421
C -7.940561 4.026575 1.495006
C -8.052792 5.364490 1.887774
C -6.953873 6.186471 1.914151
C -5.701572 5.698392 1.498920
C -4.526302 6.482562 1.528925
C -3.348152 5.957917 1.084126
N -3.269366 4.708651 0.563196
C -4.336302 3.933590 0.550959
C -5.583225 4.353903 1.040018
H -8.810963 3.389183 1.523859
H -9.016408 5.740838 2.195416
H -7.036143 7.207371 2.252689
H -4.572987 7.490577 1.908801
H -2.418260 6.521056 1.127565
H -4.226049 2.938118 0.127561
C -6.545867 -0.492542 0.675645
C -7.701481 -1.244570 0.910331
C -7.622410 -2.624315 0.955709
C -6.410103 -3.269123 0.776597
C -5.248101 -2.531902 0.535787
C -5.329073 -1.141662 0.476670
H -8.645742 -0.744879 1.062797
H -8.513519 -3.203891 1.143454
H -6.367553 -4.343557 0.859897
H -4.455728 -0.550160 0.253464
C -3.952581 -3.194915 0.360355
C -3.833671 -4.450362 -0.244524
C -2.582916 -5.001107 -0.435445
N -1.464980 -4.364717 -0.073882
C -1.555813 -3.180160 0.543566
C -2.768968 -2.577156 0.786929
H -4.706767 -4.980479 -0.588449
H -2.454716 -5.975588 -0.897838
H -0.611389 -2.725753 0.839474
H -2.810267 -1.639723 1.317360
C -3.120578 2.034500 -5.682821
C -3.231390 3.215786 -5.446055
C -3.277848 4.615711 -5.301419
C -3.707207 5.394943 -6.360800
C -3.653005 6.791406 -6.298687
C -3.140114 7.429309 -5.196878
C -2.702048 6.678265 -4.090882
C -2.136795 7.270068 -2.938917
C -1.758193 6.485964 -1.888550
N -1.949297 5.143879 -1.888580
C -2.441511 4.550729 -2.958803
C -2.806217 5.256881 -4.115765
H -4.074989 4.916367 -7.255582
H -3.999659 7.366896 -7.143427
H -3.065121 8.504971 -5.166982
H -2.005988 8.339840 -2.904050
H -1.285638 6.904813 -1.002753
H -2.574952 3.472318 -2.916025
C -2.896485 0.674724 -5.988354
C -3.195640 0.187236 -7.264681
C -2.897444 -1.124849 -7.583033
C -2.300462 -1.959583 -6.653420
C -2.001317 -1.488925 -5.372313
C -2.314127 -0.170464 -5.046022
H -3.648869 0.838900 -7.995830
H -3.122482 -1.498599 -8.570357
H -2.037765 -2.965265 -6.940690
H -2.132075 0.207050 -4.052606
C -1.351514 -2.352361 -4.381714
C -1.586896 -3.729914 -4.324952
C -0.985339 -4.485988 -3.339798
N -0.188340 -3.941908 -2.415749
C 0.080930 -2.631492 -2.471210
C -0.466181 -1.816715 -3.436338
H -2.254156 -4.203693 -5.026328
H -1.142225 -5.558433 -3.269825
H 0.757497 -2.252968 -1.706176
H -0.202610 -0.772323 -3.474690
Pd 1.280226 1.217852 3.290378
Pd -2.198040 -1.868610 -4.774541
C -2.447001 4.235207 -4.521062
C -2.919019 3.648227 -5.467760
C -3.600389 3.049893 -6.545231
C -4.233001 3.852367 -7.477788
C -5.019721 3.297718 -8.492778
C -5.214540 1.941358 -8.572964
C -4.581590 1.085417 -7.653323
C -4.763039 -0.316042 -7.662216
C -4.096097 -1.092927 -6.760800
N -3.216407 -0.568331 -5.872415
C -3.046958 0.737957 -5.809199
C -3.729431 1.631610 -6.649517
H -4.130165 4.924591 -7.410696
H -5.495735 3.954823 -9.204617
H -5.851629 1.519234 -9.334266
H -5.433202 -0.757741 -8.382287
H -4.240877 -2.170367 -6.715905
H -2.334945 1.114882 -5.078932
C -1.983085 4.909178 -3.370778
C -2.071272 6.302926 -3.293754
C -1.689803 6.949341 -2.132514
C -1.226497 6.231035 -1.043154
C -1.127365 4.838851 -1.106956
C -1.499220 4.187306 -2.281624
H -2.443731 6.864852 -4.136413
H -1.764325 8.024522 -2.071355
H -0.976312 6.755077 -0.134256
H -1.395847 3.117994 -2.372447
C -0.655478 4.059425 0.041388
C 0.308839 4.548398 0.928674
C 0.757270 3.748053 1.959407
N 0.310560 2.501095 2.134887
C -0.641617 2.025553 1.322656
C -1.152538 2.771825 0.284954
H 0.726009 5.533787 0.799739
H 1.501737 4.097630 2.668827
H -0.984562 1.013854 1.534727
H -1.943334 2.373395 -0.329834
C 3.527408 0.082133 -5.538424
C 2.932626 -0.412107 -6.468875
C 2.363186 -1.082941 -7.568147
C 3.094800 -1.220893 -8.734119
C 2.612772 -1.983616 -9.803195
C 1.413898 -2.645827 -9.713659
C 0.630018 -2.525359 -8.551607
C -0.598516 -3.203180 -8.382985
C -1.324414 -3.019848 -7.242388
N -0.928860 -2.162991 -6.269242
C 0.228298 -1.539094 -6.374195
C 1.080293 -1.703780 -7.477372
H 4.060286 -0.745092 -8.813114
H 3.209934 -2.066263 -10.698476
H 1.062352 -3.263284 -10.525272
H -0.948401 -3.864492 -9.159316
H -2.254976 -3.554292 -7.063907
H 0.506952 -0.863474 -5.568637
C 4.251772 0.565797 -4.427580
C 5.585984 0.956401 -4.580208
C 6.314290 1.350794 -3.472998
C 5.738144 1.357485 -2.213971
C 4.404490 0.976176 -2.046293
C 3.665550 0.591488 -3.163834
H 6.042003 0.939811 -5.558153
H 7.345984 1.645780 -3.590350
H 6.340400 1.626876 -1.360706
H 2.623343 0.331689 -3.069655
C 3.783575 0.959060 -0.718470
C 4.131596 1.876109 0.278649
C 3.478446 1.845103 1.493745
N 2.501757 0.970629 1.751760
C 2.176244 0.059251 0.826377
C 2.797086 0.015305 -0.401371
H 4.886133 2.624460 0.099319
H 3.727254 2.538983 2.291404
H 1.391496 -0.642081 1.106380
H 2.536141 -0.752504 -1.111440
C 1.524261 -4.886124 3.038228
C 2.001986 -4.298437 3.981604
C 2.689957 -3.700159 5.054870
C 3.328193 -4.502962 5.983488
C 4.121338 -3.948737 6.993731
C 4.316755 -2.592470 7.072972
C 3.678273 -1.736198 6.157498
C 3.859759 -0.334751 6.165760
C 3.187572 0.442548 5.268526
N 2.302731 -0.081739 4.385123
C 2.132630 -1.388059 4.322566
C 2.819887 -2.281995 5.158799
H 3.224699 -5.575135 5.916704
H 4.601661 -4.606068 7.702248
H 4.958599 -2.170563 7.830376
H 4.534159 0.106713 6.881966
H 3.332179 1.519927 5.223305
H 1.416093 -1.764555 3.596587
C 1.053713 -5.560841 1.891245
C 1.131569 -6.955403 1.818795
C 0.743546 -7.603089 0.660300
C 0.283747 -6.885050 -0.430781
C 0.194960 -5.492084 -0.371646
C 0.573273 -4.839295 0.800271
H 1.501328 -7.517241 2.662719
H 0.810154 -8.678951 0.602650
H 0.028499 -7.410377 -1.337447
H 0.478113 -3.768861 0.887372
C -0.273300 -4.712986 -1.521671
C -1.242739 -5.197910 -2.405476
C -1.687741 -4.397587 -3.437813
N -1.233006 -3.154072 -3.617819
C -0.275595 -2.682973 -2.809023
C 0.232359 -3.429637 -1.770252
H -1.666495 -6.179996 -2.272814
H -2.436155 -4.744124 -4.144613
H 0.073873 -1.674365 -3.024797
H 1.027340 -3.034957 -1.158657
C -4.455930 -0.709653 4.049509
C -3.859115 -0.219306 4.980762
C -3.287117 0.447567 6.081153
C -4.019349 0.588839 7.246418
C -3.534213 1.347859 8.316609
C -2.331458 2.003229 8.228963
C -1.547021 1.879264 7.067776
C -0.314761 2.550454 6.900840
C 0.411268 2.364416 5.760877
N 0.012172 1.510635 4.786445
C -1.148426 0.892758 4.889646
C -2.000638 1.061149 5.992259
H -4.987681 0.118414 7.323868
H -4.131929 1.433223 9.211295
H -1.977295 2.617986 9.041483
H 0.038096 3.209244 7.678285
H 1.344801 2.894142 5.583840
H -1.430157 0.219580 4.083414
C -5.181512 -1.188574 2.937482
C -6.519616 -1.567108 3.087161
C -7.248289 -1.957144 1.978604
C -6.668787 -1.971306 0.721069
C -5.331406 -1.601908 0.556581
C -4.592117 -1.221851 1.675346
H -6.978131 -1.544600 4.063855
H -8.282792 -2.242816 2.093698
H -7.270855 -2.236861 -0.133278
H -3.547407 -0.971443 1.583725
C -4.706911 -1.591967 -0.769712
C -5.059799 -2.507389 -1.766644
C -4.403742 -2.482668 -2.980299
N -3.419822 -1.616033 -3.237062
C -3.088972 -0.706473 -2.311835
C -3.712009 -0.656558 -1.085416
H -5.820687 -3.249571 -1.588068
H -4.655997 -3.175470 -3.777898
H -2.297768 -0.011755 -2.590592
H -3.446478 0.109456 -0.375199
