336
cid:69, pot: -292.3915031845271
C -1.650942 2.030373 3.646753
C -3.101951 1.964437 3.545494
C -0.970628 3.154000 3.192828
C 0.415442 3.245465 3.319672
H -1.498571 3.983073 2.747095
C 1.117496 2.194512 3.897567
C 0.448334 1.060359 4.357810
H 2.189417 2.238233 4.015557
C -0.932868 0.983381 4.224666
C 1.181862 -0.021399 4.999557
H -1.479750 0.122041 4.576686
C 1.120720 4.441130 2.880103
H 0.606365 -0.939597 5.195132
H -3.576122 2.755620 2.944170
H 2.219686 4.373377 2.874039
C -3.794807 -1.259139 0.313423
C -4.303116 -1.193013 1.676230
C -3.102714 -2.384499 -0.117970
C -2.644652 -2.477347 -1.432222
H -2.917627 -3.213983 0.547240
C -2.877230 -1.425720 -2.310513
C -3.570384 -0.289829 -1.891921
H -2.541079 -1.470231 -3.335075
C -4.020938 -0.211567 -0.579535
C -3.847399 0.792474 -2.825748
H -4.565589 0.651171 -0.227531
C -1.955765 -3.674952 -1.891764
H -4.259155 1.712846 -2.383304
H -3.952280 -1.984875 2.356164
H -1.493133 -3.608239 -2.888682
C 3.525969 -1.930647 1.509840
C 4.019197 -1.397949 2.771941
C 4.049048 -1.469811 0.307536
C 3.613533 -1.999567 -0.907060
H 4.810691 -0.705450 0.287576
C 2.639297 -2.990619 -0.907754
C 2.104907 -3.463129 0.291022
H 2.286293 -3.424886 -1.830528
C 2.548711 -2.925895 1.493553
C 1.113627 -4.529758 0.288639
H 2.159183 -3.275052 2.437637
C 4.193188 -1.543141 -2.162412
H 0.631697 -4.737459 1.256526
H 4.672378 -0.514810 2.695397
H 3.691248 -1.894562 -3.077244
C 0.827942 4.213795 -1.721761
C 0.419722 5.283205 -0.821836
C -0.082517 3.677676 -2.624515
C 0.306095 2.680138 -3.518744
H -1.102006 4.029537 -2.663362
C 1.615542 2.215523 -3.493985
C 2.540582 2.743930 -2.593373
H 1.948261 1.449154 -4.177212
C 2.139036 3.737476 -1.708440
C 3.921910 2.283287 -2.597496
H 2.832823 4.170683 -1.004366
C -0.639697 2.149697 -4.490499
H 4.545915 2.634027 -1.760787
H -0.660708 5.492947 -0.787740
H -0.303499 1.264005 -5.051550
C -5.195266 1.053167 4.029101
C -5.609561 -0.284146 3.382519
N -3.770369 1.073096 4.135130
N -5.116360 -0.301996 2.041486
C -7.136305 -0.393598 3.347661
H -5.186065 -1.105153 3.989193
C -7.725036 -0.279636 4.748480
H -7.410083 -1.348935 2.894787
H -7.523707 0.402651 2.709691
C -7.313892 1.041079 5.390341
H -7.365726 -1.108717 5.362544
H -8.813426 -0.348044 4.695228
C -5.795338 1.158900 5.433768
H -7.715538 1.106728 6.403527
H -7.726672 1.870024 4.810727
H -5.372634 0.362830 6.049024
H -5.498785 2.114380 5.871696
H -5.573903 1.874280 3.393758
C 3.071549 -0.975721 5.981582
C 4.260014 -1.395071 5.092755
N 2.390795 0.101224 5.334574
N 3.738016 -1.935061 3.877084
C 5.081381 -2.476561 5.799851
H 4.886393 -0.502590 4.912874
C 5.581339 -1.986499 7.153183
H 5.921648 -2.754382 5.159882
H 4.451491 -3.358700 5.927124
C 4.407462 -1.568711 8.032342
H 6.247301 -1.132800 7.007533
H 6.152464 -2.778651 7.641643
C 3.584811 -0.489370 7.339635
H 4.771671 -1.193282 8.990738
H 3.775176 -2.437330 8.229921
H 4.192456 0.402694 7.178073
H 2.730051 -0.205228 7.957217
H 2.416991 -1.855648 6.118268
C 1.235235 6.654739 2.149830
C 0.818134 7.000979 0.706165
N 0.507836 5.493919 2.556484
N 1.256565 5.943862 -0.149489
C 1.494527 8.302694 0.267813
H -0.280341 7.120736 0.685040
C 1.139735 9.447370 1.208867
H 1.181142 8.535542 -0.752088
H 2.574118 8.143012 0.258206
C 1.549106 9.105363 2.637453
H 0.062647 9.626871 1.173242
H 1.643344 10.359506 0.882490
C 0.878295 7.812833 3.085597
H 1.268913 9.916679 3.312267
H 2.634120 8.987730 2.685425
H -0.206647 7.931722 3.087198
H 1.188419 7.553402 4.100207
H 2.326930 6.483023 2.160668
C -1.251628 -5.891009 -1.692850
C -0.115341 -6.243261 -0.711570
N -1.919773 -4.728083 -1.200077
N 0.849360 -5.189785 -0.752191
C 0.559884 -7.547236 -1.145066
H -0.554993 -6.362229 0.295303
C -0.448112 -8.687626 -1.217182
H 1.354855 -7.784492 -0.434762
H 1.020048 -7.388034 -2.121826
C -1.573951 -8.339601 -2.185067
H -0.866162 -8.866858 -0.223961
H 0.054939 -9.601399 -1.540019
C -2.255950 -7.044837 -1.760602
H -2.307480 -9.147812 -2.213394
H -1.164145 -8.222074 -3.190970
H -2.710614 -7.163286 -0.775578
H -3.047273 -6.781067 -2.465538
H -0.805144 -5.720105 -2.689198
C -3.955965 1.744922 -4.953688
C -2.653393 2.155484 -5.670047
N -3.653533 0.667671 -4.064972
N -1.759245 2.692112 -4.693316
C -2.952054 3.237093 -6.711915
H -2.235845 1.259776 -6.164702
C -3.981517 2.751588 -7.724903
H -2.020723 3.508397 -7.213698
H -3.322583 4.122261 -6.192005
C -5.269151 2.342643 -7.017657
H -3.579273 1.894682 -8.270168
H -4.186037 3.543907 -8.447826
C -4.984115 1.263094 -5.980887
H -5.994261 1.970560 -7.744228
H -5.704711 3.214684 -6.524379
H -4.591592 0.367900 -6.466379
H -5.901000 0.985291 -5.456640
H -4.345384 2.627913 -4.415212
C 5.775104 -0.403869 -3.445384
C 5.743745 1.137032 -3.499579
N 5.222066 -0.815737 -2.193955
N 4.376843 1.553186 -3.518742
C 6.426103 1.625913 -4.780084
H 6.280858 1.523281 -2.614316
C 7.862345 1.123638 -4.860589
H 6.401701 2.717639 -4.796531
H 5.851760 1.265076 -5.635042
C 7.895259 -0.399839 -4.804352
H 8.437141 1.529909 -4.024991
H 8.321922 1.474770 -5.786680
C 7.221928 -0.897476 -3.531251
H 8.927511 -0.754210 -4.835412
H 7.373947 -0.806218 -5.674173
H 7.760982 -0.536687 -2.653527
H 7.223322 -1.989158 -3.500082
H 5.192896 -0.790021 -4.301655
C 4.360734 1.308221 0.347552
C 5.118097 0.553059 -0.640459
C 4.159912 0.786558 1.619927
C 3.469402 1.517023 2.586996
H 4.544169 -0.184761 1.891176
C 2.971591 2.773866 2.264915
C 3.165313 3.310535 0.991935
H 2.438813 3.365963 2.993202
C 3.855199 2.571101 0.038703
C 2.677934 4.644260 0.669768
H 4.026802 2.961602 -0.952826
C 3.295928 0.984894 3.931295
H 2.735823 4.931346 -0.391711
H 5.349201 -0.489387 -0.371758
H 2.613919 1.550094 4.585321
C 1.907601 -0.685319 -3.718962
C 3.151926 0.042429 -3.923750
C 0.704454 -0.144994 -4.157128
C -0.489699 -0.849201 -4.002428
H 0.669301 0.820743 -4.637559
C -0.469878 -2.098402 -3.393854
C 0.730055 -2.653554 -2.948992
H -1.375939 -2.670483 -3.265456
C 1.911939 -1.940402 -3.110026
C 0.752505 -3.979844 -2.348343
H 2.856859 -2.345805 -2.782057
C -1.742328 -0.297859 -4.499364
H 1.705836 -4.279913 -1.886141
H 3.045930 1.082873 -4.268149
H -2.654386 -0.838948 -4.203251
C -1.904466 4.095595 0.533930
C -1.108273 5.023874 1.324031
C -2.812988 3.250043 1.159536
C -3.609985 2.383788 0.411232
H -2.931697 3.255119 2.232176
C -3.481637 2.364163 -0.972385
C -2.574150 3.206895 -1.614362
H -4.088425 1.709874 -1.579428
C -1.786744 4.064849 -0.855627
C -2.470896 3.212567 -3.066786
H -1.080203 4.733264 -1.323530
C -4.589378 1.528838 1.067031
H -1.630372 3.787905 -3.484649
H -1.147714 4.879005 2.414929
H -5.065821 0.769158 0.428084
C 0.276268 -2.454992 3.328928
C 1.601614 -2.484070 3.931199
C -0.034341 -3.320432 2.286853
C -1.312028 -3.330002 1.727260
H 0.698385 -4.011234 1.898811
C -2.275809 -2.455503 2.214659
C -1.978628 -1.580858 3.260052
H -3.274918 -2.443271 1.806898
C -0.701403 -1.582716 3.807841
C -3.002323 -0.694365 3.795262
H -0.442764 -0.922672 4.621610
C -1.645590 -4.266387 0.663239
H -2.650573 0.067718 4.507977
H 2.355336 -3.085080 3.399078
H -2.618395 -4.106984 0.172801
C 6.266843 0.306317 -2.656828
C 5.475883 0.243620 -3.979221
N 5.507380 1.073513 -1.720581
N 4.276757 -0.497803 -3.746034
C 6.302931 -0.479465 -5.045634
H 5.264741 1.278973 -4.303078
C 7.641641 0.214888 -5.263584
H 5.730875 -0.506758 -5.975540
H 6.460583 -1.508867 -4.719174
C 8.423801 0.280253 -3.956222
H 7.469683 1.228036 -5.634500
H 8.216476 -0.325985 -6.018007
C 7.611129 1.001779 -2.888168
H 9.370294 0.802096 -4.111190
H 8.650349 -0.733528 -3.617997
H 7.417531 2.031617 -3.192990
H 8.159807 1.029129 -1.944306
H 6.432269 -0.728319 -2.305622
C 1.795116 6.736962 1.205723
C 0.309546 6.855964 1.602315
N 2.245656 5.427421 1.557801
N -0.441818 5.951310 0.790516
C -0.185611 8.280909 1.340168
H 0.220652 6.617305 2.677620
C 0.648747 9.299602 2.106831
H -1.235284 8.347852 1.634291
H -0.125370 8.474130 0.267791
C 2.118479 9.181321 1.717864
H 0.542137 9.123590 3.179722
H 0.284258 10.306624 1.893669
C 2.623075 7.767398 1.978252
H 2.716135 9.894599 2.289016
H 2.233457 9.419171 0.657883
H 2.557377 7.533291 3.042209
H 3.669109 7.673808 1.678599
H 1.877187 6.924056 0.119629
C 3.732746 -0.522031 5.659019
C 3.164730 -1.953461 5.580238
N 3.912838 -0.041170 4.325447
N 1.856805 -1.882550 5.009072
C 3.056744 -2.547848 6.987097
H 3.851631 -2.562534 4.964907
C 4.412010 -2.555148 7.683354
H 2.661185 -3.562868 6.910444
H 2.342335 -1.952327 7.558159
C 4.976427 -1.140566 7.759630
H 5.103432 -3.192062 7.126673
H 4.305952 -2.971337 8.687208
C 5.091816 -0.540460 6.363893
H 5.959189 -1.154009 8.235048
H 4.316408 -0.519249 8.369340
H 5.785572 -1.125729 5.757773
H 5.473796 0.481379 6.417791
H 3.019586 0.100177 6.229675
C -3.019395 1.218478 -5.730719
C -3.188348 2.663251 -5.218679
N -1.772264 0.717901 -5.245255
N -3.310704 2.618836 -3.795592
C -4.463156 3.276360 -5.804326
H -2.306580 3.247130 -5.539436
C -4.430104 3.256344 -7.327541
H -4.561280 4.300448 -5.437790
H -5.318640 2.706189 -5.437982
C -4.260260 1.828555 -7.835466
H -3.597339 3.868603 -7.681277
H -5.353883 3.686538 -7.719783
C -2.991524 1.209774 -7.261629
H -4.210149 1.821909 -8.926103
H -5.124350 1.231456 -7.534871
H -2.115442 1.769931 -7.592903
H -2.880138 0.179123 -7.605296
H -3.874716 0.621715 -5.365242
C -0.184383 -6.046175 -1.801142
C -1.248498 -6.127390 -0.687815
N -0.249944 -4.743218 -2.383926
N -0.878362 -5.215461 0.348000
C -1.286149 -7.543777 -0.107314
H -2.229143 -5.874471 -1.130103
C -1.577863 -8.572436 -1.192802
H -2.049934 -7.583870 0.672305
H -0.320898 -7.750116 0.358527
C -0.527982 -8.491399 -2.295792
H -2.566084 -8.382377 -1.617923
H -1.586785 -9.573248 -0.756256
C -0.484839 -7.086421 -2.883761
H -0.755816 -9.211639 -3.084186
H 0.451698 -8.743226 -1.883256
H -1.444401 -6.839176 -3.341372
H 0.282634 -7.019582 -3.657939
H 0.803370 -6.247079 -1.348196
C -5.871106 0.828805 2.887343
C -5.196633 0.061160 4.042317
N -4.889956 1.673316 2.282534
N -4.217085 -0.814979 3.481218
C -6.238876 -0.777125 4.787645
H -4.745154 0.800063 4.728980
C -7.364945 0.099134 5.322187
H -5.744990 -1.305817 5.605644
H -6.636654 -1.523590 4.098037
C -8.031079 0.861057 4.181609
H -6.959991 0.810536 6.045800
H -8.099812 -0.522630 5.837594
C -7.003094 1.702249 3.435090
H -8.819392 1.507542 4.572362
H -8.490577 0.150558 3.490560
H -6.569179 2.448360 4.103144
H -7.473495 2.230576 2.603074
H -6.276494 0.089189 2.173312
