336
cid:69, pot: -290.763538728197
C 0.537109 -1.223421 4.339073
C -0.658248 -1.925501 4.784308
C 0.647748 0.149878 4.521343
C 1.803806 0.827658 4.134319
H -0.148815 0.717681 4.977250
C 2.847142 0.117747 3.552236
C 2.750518 -1.260920 3.362906
H 3.756805 0.612609 3.248142
C 1.592542 -1.922670 3.753480
C 3.861184 -2.008208 2.790117
H 1.490165 -2.989532 3.626088
C 1.932926 2.259782 4.363673
H 3.650090 -3.058286 2.534564
H -1.500669 -1.287475 5.093580
H 2.804620 2.742692 3.895376
C -2.705369 -3.148249 0.830582
C -2.296917 -3.978525 1.954771
C -2.265601 -3.448619 -0.453128
C -2.680868 -2.685010 -1.544071
H -1.607444 -4.284301 -0.635528
C -3.534616 -1.608271 -1.336341
C -3.984339 -1.294643 -0.053642
H -3.878652 -1.002404 -2.160521
C -3.562290 -2.064584 1.023645
C -4.910625 -0.190749 0.155071
H -3.897743 -1.851002 2.027000
C -2.250683 -3.027440 -2.892286
H -5.094904 0.087658 1.204316
H -1.504417 -4.713150 1.743315
H -2.493592 -2.290861 -3.673803
C 3.873846 -0.670138 -1.628887
C 4.947619 -0.623995 -0.646633
C 3.501608 0.483629 -2.308429
C 2.501435 0.445422 -3.279898
H 3.985776 1.427684 -2.110721
C 1.868198 -0.759840 -3.558607
C 2.230995 -1.926087 -2.884701
H 1.095221 -0.823136 -4.309081
C 3.229440 -1.872716 -1.919339
C 1.593606 -3.194870 -3.207602
H 3.536717 -2.759024 -1.385508
C 2.142541 1.647900 -4.018461
H 1.823083 -4.031877 -2.530136
H 5.296163 0.382181 -0.366335
H 1.245670 1.570506 -4.652487
C -1.029244 4.090770 1.332570
C -0.956419 4.268640 2.775902
C -2.215666 3.673549 0.741256
C -2.310314 3.536900 -0.643704
H -3.090378 3.460714 1.336447
C -1.200182 3.812555 -1.432852
C -0.002503 4.232087 -0.853563
H -1.243706 3.722305 -2.507460
C 0.076914 4.363857 0.527671
C 1.146401 4.558815 -1.686356
H 0.987330 4.692579 1.004971
C -3.566776 3.138943 -1.262682
H 2.092669 4.730959 -1.150237
H -1.816016 3.886998 3.348549
H -3.517966 2.904986 -2.337456
C -1.893593 -3.836947 5.300595
C -2.426084 -4.728429 4.160496
N -0.709686 -3.183827 4.838242
N -2.839947 -3.879749 3.087930
C -3.635342 -5.530242 4.649302
H -1.616327 -5.415530 3.854489
C -3.273970 -6.381519 5.860344
H -3.992839 -6.160584 3.832245
H -4.432067 -4.829533 4.904908
C -2.744535 -5.501678 6.987683
H -2.509262 -7.109025 5.578370
H -4.154388 -6.932766 6.196643
C -1.537727 -4.701593 6.513073
H -2.461825 -6.118174 7.843359
H -3.530685 -4.816104 7.312408
H -0.726839 -5.374565 6.229320
H -1.171273 -4.053200 7.311799
H -2.685220 -3.114780 5.570881
C 6.069932 -2.261276 2.080607
C 6.530147 -1.585380 0.773058
N 4.998356 -1.489644 2.626650
N 5.462565 -1.672419 -0.172786
C 7.749230 -2.320480 0.209398
H 6.794265 -0.537130 1.002501
C 8.888877 -2.345172 1.220447
H 8.065134 -1.823383 -0.710327
H 7.449358 -3.338275 -0.046141
C 8.434569 -3.010690 2.515107
H 9.210021 -1.322524 1.431580
H 9.740092 -2.884618 0.800071
C 7.223404 -2.284497 3.087208
H 9.245774 -3.002218 3.245855
H 8.173169 -4.052317 2.315096
H 7.483810 -1.254122 3.335453
H 6.881779 -2.773484 4.002055
H 5.755968 -3.293713 1.842068
C 1.283309 4.297418 5.297758
C 0.040830 5.024706 4.745198
N 1.112252 2.895790 5.078313
N 0.016715 4.849942 3.327192
C 0.133472 6.521018 5.055986
H -0.853881 4.593273 5.229752
C 0.262841 6.761388 6.555062
H -0.757448 7.017064 4.665054
H 1.000290 6.928009 4.532448
C 1.489599 6.040527 7.103545
H -0.631856 6.391356 7.061226
H 0.339587 7.833130 6.749009
C 1.405984 4.549169 6.803022
H 1.563348 6.193394 8.182113
H 2.389527 6.454550 6.642992
H 0.535699 4.113049 7.296621
H 2.294778 4.034285 7.174310
H 2.173578 4.691809 4.774997
C -1.274508 -4.424599 -4.486437
C 0.258028 -4.594146 -4.513407
N -1.663673 -4.113353 -3.147289
N 0.850447 -3.327943 -4.216960
C 0.707568 -5.034220 -5.909275
H 0.532141 -5.363044 -3.768491
C 0.025192 -6.333361 -6.319567
H 1.792786 -5.157084 -5.906644
H 0.462217 -4.239577 -6.616031
C -1.490494 -6.168142 -6.290649
H 0.316343 -7.130202 -5.631341
H 0.352319 -6.618460 -7.321552
C -1.949538 -5.733970 -4.904114
H -1.975518 -7.108703 -6.559293
H -1.787350 -5.415169 -7.024476
H -1.700443 -6.499562 -4.167335
H -3.032270 -5.592168 -4.887243
H -1.543992 -3.618762 -5.193026
C -6.403267 1.453632 -0.562639
C -5.862631 2.720196 -1.256867
N -5.484717 0.386739 -0.807095
N -4.644727 3.095505 -0.610861
C -6.870737 3.863394 -1.110625
H -5.708490 2.487176 -2.326103
C -8.224013 3.477584 -1.694964
H -6.474908 4.747629 -1.614823
H -6.971228 4.099535 -0.049843
C -8.758565 2.223669 -1.011311
H -8.117596 3.289518 -2.765809
H -8.927067 4.303161 -1.567078
C -7.764539 1.077796 -1.154311
H -9.715496 1.935654 -1.451159
H -8.924506 2.431074 0.048377
H -7.624689 0.828817 -2.207686
H -8.134613 0.185258 -0.645284
H -6.507204 1.670402 0.516010
C 2.463953 3.853630 -4.709735
C 2.196830 5.007143 -3.721630
N 2.835400 2.698888 -3.954648
N 1.051377 4.665196 -2.938698
C 1.899358 6.294971 -4.494493
H 3.098928 5.141112 -3.097418
C 3.051361 6.652845 -5.425283
H 1.721557 7.100966 -3.779308
H 0.982649 6.147793 -5.068086
C 3.318560 5.512064 -6.401218
H 3.950617 6.842964 -4.834637
H 2.809821 7.566053 -5.972877
C 3.619895 4.225538 -5.642367
H 4.161710 5.761719 -7.048410
H 2.440927 5.363599 -7.034634
H 4.522465 4.345059 -5.040512
H 3.788395 3.401623 -6.339156
H 1.543704 3.684482 -5.297794
C 1.039326 -3.827417 1.801443
C 0.476699 -3.966072 3.137205
C 2.345948 -3.383152 1.637839
C 2.908839 -3.283103 0.365537
H 2.955987 -3.120396 2.488428
C 2.146462 -3.623234 -0.745452
C 0.833556 -4.070701 -0.596889
H 2.555721 -3.562594 -1.742279
C 0.286130 -4.165212 0.676982
C 0.050712 -4.464922 -1.759600
H -0.724552 -4.514039 0.824998
C 4.291146 -2.856139 0.200240
H -1.017095 -4.659364 -1.573891
H 1.075917 -3.537871 3.955669
H 4.610221 -2.657963 -0.834774
C -2.660084 -0.583210 3.323968
C -2.827201 -2.011666 3.550869
C -3.456967 0.072072 2.392793
C -3.334124 1.447279 2.193904
H -4.195125 -0.463494 1.815740
C -2.396250 2.160939 2.930343
C -1.589386 1.516912 3.868498
H -2.281722 3.226590 2.803923
C -1.723106 0.146385 4.055963
C -0.636014 2.274458 4.666955
H -1.117918 -0.379177 4.778681
C -4.198726 2.137046 1.246970
H 0.065986 1.676636 5.268881
H -3.473020 -2.537618 2.830686
H -3.937101 3.185496 1.035749
C -0.788521 -0.452433 -3.884099
C -0.166369 -1.661223 -4.405290
C -0.128687 0.767110 -3.979417
C -0.729849 1.938777 -3.519675
H 0.853007 0.836513 -4.422288
C -1.997061 1.876945 -2.952571
C -2.671620 0.660260 -2.850043
H -2.491272 2.766677 -2.593518
C -2.060087 -0.498985 -3.312588
C -4.015481 0.605035 -2.292174
H -2.558925 -1.454249 -3.253050
C -0.052449 3.220227 -3.658371
H -4.414836 -0.403666 -2.104706
H 0.891151 -1.566787 -4.697415
H -0.521119 4.068524 -3.135776
C 4.152950 1.629013 1.285741
C 4.978186 0.568054 1.845624
C 3.368605 2.415528 2.120954
C 2.603694 3.460240 1.602100
H 3.345120 2.245552 3.186425
C 2.622947 3.704606 0.234219
C 3.405171 2.923341 -0.616614
H 2.047038 4.509176 -0.196634
C 4.162251 1.886048 -0.085357
C 3.454367 3.207710 -2.043843
H 4.782407 1.268308 -0.716686
C 1.815049 4.307852 2.485170
H 3.967791 2.456632 -2.664117
H 4.797474 0.330909 2.905608
H 1.123800 5.005559 1.987508
C -1.123654 -4.699527 4.669247
C -2.495767 -3.998114 4.729219
N -0.613465 -4.565229 3.341240
N -2.289448 -2.598468 4.528194
C -3.127987 -4.210170 6.107417
H -3.140841 -4.436961 3.946461
C -3.279777 -5.694359 6.417118
H -4.100758 -3.714178 6.128063
H -2.492377 -3.731920 6.854662
C -1.924207 -6.389963 6.355400
H -3.955061 -6.150494 5.689418
H -3.720448 -5.818698 7.408320
C -1.287261 -6.188570 4.985906
H -2.041341 -7.457677 6.551489
H -1.269007 -5.976632 7.125688
H -1.909546 -6.638649 4.210565
H -0.305867 -6.666104 4.947198
H -0.461839 -4.224945 5.416212
C -0.223571 -5.010892 -4.011867
C -0.168873 -3.896019 -5.076024
N 0.573275 -4.602077 -2.898426
N -0.809719 -2.736844 -4.539747
C -0.923461 -4.339504 -6.332323
H 0.891910 -3.705741 -5.320308
C -0.342335 -5.632219 -6.891646
H -0.866793 -3.541866 -7.076209
H -1.973728 -4.479801 -6.071146
C -0.393105 -6.734952 -5.839601
H 0.694587 -5.464892 -7.192038
H -0.904539 -5.933335 -7.778009
C 0.358422 -6.305569 -4.585633
H 0.048552 -7.651643 -6.235568
H -1.434324 -6.946045 -5.585325
H 1.411652 -6.136399 -4.816317
H 0.303630 -7.084323 -3.821906
H -1.280764 -5.164799 -3.729032
C 6.432674 -2.348450 0.976625
C 6.667280 -1.039204 1.756803
N 5.076600 -2.750484 1.180362
N 5.862350 -0.017785 1.164590
C 8.138817 -0.629211 1.653382
H 6.398185 -1.216060 2.814037
C 9.051531 -1.729183 2.181195
H 8.287055 0.293811 2.217884
H 8.365115 -0.421238 0.606160
C 8.818793 -3.025465 1.412486
H 8.846389 -1.894380 3.241499
H 10.093711 -1.418036 2.085106
C 7.357430 -3.445048 1.511936
H 9.455383 -3.817625 1.811560
H 9.084169 -2.877376 0.363177
H 7.091348 -3.641763 2.551994
H 7.183289 -4.360721 0.942562
H 6.651065 -2.157336 -0.089756
C -6.037383 2.288522 -0.182300
C -6.009793 1.554440 -1.538199
N -5.199353 1.573240 0.727461
N -4.685800 1.648681 -2.067614
C -6.979767 2.227217 -2.513157
H -6.312739 0.505428 -1.367577
C -8.395881 2.245211 -1.951042
H -6.952730 1.689417 -3.463301
H -6.633067 3.245975 -2.695057
C -8.424384 2.968391 -0.608800
H -8.747326 1.219423 -1.817871
H -9.064526 2.740421 -2.658127
C -7.464989 2.304119 0.371085
H -9.435543 2.955448 -0.197175
H -8.133135 4.011485 -0.752553
H -7.771974 1.274006 0.559935
H -7.466151 2.834671 1.325689
H -5.683727 3.322976 -0.343873
C 0.300120 4.244229 5.497957
C 1.165269 5.123989 4.572768
N -0.637911 3.534825 4.686493
N 1.941538 4.262122 3.738431
C 2.114535 5.983839 5.411876
H 0.490465 5.771370 3.983881
C 1.340569 6.853130 6.395152
H 2.711939 6.604899 4.740926
H 2.794941 5.320635 5.948998
C 0.482457 5.984696 7.308865
H 0.698711 7.543603 5.843158
H 2.039401 7.445918 6.988880
C -0.469447 5.127374 6.483996
H -0.090532 6.612915 7.993877
H 1.128863 5.338079 7.906712
H -1.152957 5.761510 5.916562
H -1.068830 4.487333 7.135088
H 0.971134 3.559984 6.048162
C 1.614266 4.627632 -4.487637
C 3.048851 4.517075 -3.932750
N 0.988048 3.349882 -4.357816
N 2.963971 4.262591 -2.529183
C 3.793395 5.837218 -4.150427
H 3.563559 3.700173 -4.470397
C 3.825473 6.209976 -5.627457
H 4.808146 5.736990 -3.759537
H 3.288339 6.615514 -3.575821
C 2.407636 6.316922 -6.178349
H 4.373980 5.446029 -6.183532
H 4.349891 7.159256 -5.754413
C 1.658419 5.006538 -5.970475
H 2.435986 6.557870 -7.242872
H 1.879027 7.123479 -5.664992
H 2.150240 4.199868 -6.516968
H 0.635097 5.088407 -6.342991
H 1.082871 5.408497 -3.913981
