336
cid:69, pot: -285.7258505619515
C 0.854520 -2.704840 3.070310
C -0.273785 -3.535104 3.467319
C 1.110685 -1.511948 3.735742
C 2.210906 -0.727175 3.390359
H 0.475215 -1.174830 4.540289
C 3.049104 -1.143542 2.363029
C 2.804692 -2.338490 1.686076
H 3.911836 -0.561587 2.076898
C 1.704630 -3.109922 2.041219
C 3.707452 -2.792327 0.637667
H 1.492587 -4.042336 1.540674
C 2.499646 0.501535 4.116411
H 3.364011 -3.659977 0.053059
H -0.978961 -3.076300 4.177688
H 3.290092 1.136529 3.687071
C -3.193477 -3.127546 -0.086140
C -2.627070 -4.328553 0.511151
C -3.057299 -2.897180 -1.449928
C -3.628751 -1.770591 -2.041486
H -2.521058 -3.589067 -2.081230
C -4.330974 -0.868481 -1.251243
C -4.476000 -1.086335 0.118953
H -4.789907 0.009039 -1.680249
C -3.901301 -2.213342 0.694330
C -5.246534 -0.160228 0.936727
H -4.001376 -2.412823 1.750294
C -3.518773 -1.553721 -3.477061
H -5.184477 -0.316803 2.024852
H -1.957857 -4.914971 -0.137470
H -3.859737 -0.571831 -3.840321
C 2.903564 0.170499 -2.811045
C 4.159085 -0.163098 -2.153536
C 2.491356 1.495160 -2.893943
C 1.310456 1.832439 -3.555213
H 3.080337 2.290197 -2.462939
C 0.538293 0.827608 -4.125651
C 0.939119 -0.506405 -4.050478
H -0.377001 1.057080 -4.649379
C 2.118275 -0.827354 -3.388476
C 0.148573 -1.552391 -4.683953
H 2.458184 -1.849396 -3.318980
C 0.902828 3.225154 -3.675289
H 0.446636 -2.586008 -4.449443
H 4.638135 0.655602 -1.594356
H -0.110008 3.394999 -4.072371
C -0.873891 3.349340 2.765923
C -0.486958 2.947963 4.111036
C -2.187277 3.187417 2.341517
C -2.579969 3.603661 1.069400
H -2.932463 2.751135 2.988840
C -1.640838 4.175691 0.219726
C -0.318809 4.344545 0.631727
H -1.915111 4.513422 -0.767965
C 0.057869 3.925147 1.902041
C 0.653088 4.980987 -0.246132
H 1.071322 4.048049 2.252097
C -3.965853 3.469723 0.643271
H 1.701208 4.937086 0.088529
H -1.235676 2.365342 4.670014
H -4.161707 3.676075 -0.420364
C -1.523292 -5.506134 3.472947
C -2.352123 -5.883899 2.228581
N -0.413653 -4.714299 3.044379
N -2.911537 -4.686236 1.685813
C -3.492876 -6.823106 2.629474
H -1.682039 -6.389401 1.509617
C -2.955886 -8.077858 3.307060
H -4.062673 -7.085774 1.735576
H -4.159702 -6.285225 3.305586
C -2.133634 -7.705828 4.536210
H -2.327927 -8.630323 2.604207
H -3.787911 -8.724065 3.593868
C -0.992441 -6.773795 4.147922
H -1.728740 -8.605976 5.003080
H -2.776921 -7.208870 5.266077
H -0.315469 -7.275010 3.454064
H -0.416297 -6.487261 5.030318
H -2.180358 -4.954224 4.169304
C 5.691513 -2.728833 -0.589317
C 5.921002 -1.590813 -1.604483
N 4.823213 -2.241795 0.435722
N 4.675841 -1.309058 -2.246446
C 6.932313 -2.036119 -2.664295
H 6.310517 -0.714175 -1.055834
C 8.252370 -2.445621 -2.022902
H 7.087864 -1.215764 -3.368295
H 6.504943 -2.874807 -3.216639
C 8.026777 -3.568993 -1.016623
H 8.691581 -1.584889 -1.513240
H 8.950807 -2.770121 -2.796962
C 7.024231 -3.135125 0.045561
H 8.970805 -3.840856 -0.540157
H 7.646595 -4.451049 -1.536970
H 7.412624 -2.282330 0.605028
H 6.843244 -3.946319 0.754059
H 5.252785 -3.587771 -1.128895
C 2.225324 2.004694 5.880423
C 0.957276 2.880045 5.942385
N 1.900231 0.799807 5.184333
N 0.623360 3.274757 4.610257
C 1.232638 4.135594 6.774187
H 0.151928 2.285849 6.411190
C 1.691347 3.770340 8.180572
H 0.322444 4.737777 6.813582
H 2.000691 4.722351 6.267318
C 2.943737 2.902369 8.120940
H 0.895457 3.224162 8.692292
H 1.892713 4.680950 8.748354
C 2.679716 1.647429 7.298216
H 3.253321 2.620942 9.129440
H 3.757789 3.471186 7.665792
H 1.899688 1.045578 7.767862
H 3.582220 1.035597 7.234469
H 3.015385 2.579748 5.364169
C -3.012735 -2.206286 -5.659804
C -1.538353 -2.339020 -6.091918
N -3.087134 -2.447951 -4.253496
N -0.797373 -1.285413 -5.473072
C -1.427310 -2.193147 -7.611979
H -1.177222 -3.336041 -5.780831
C -2.282404 -3.233186 -8.325335
H -0.378956 -2.298234 -7.899574
H -1.750368 -1.187157 -7.885433
C -3.740303 -3.105056 -7.896907
H -1.918759 -4.233558 -8.079573
H -2.195898 -3.100106 -9.405646
C -3.863034 -3.252781 -6.385345
H -4.344665 -3.869087 -8.389935
H -4.122561 -2.127219 -8.199079
H -3.527720 -4.243779 -6.074684
H -4.903369 -3.137893 -6.073568
H -3.358379 -1.190262 -5.923415
C -6.719296 1.621479 1.258547
C -6.235820 3.063217 1.001514
N -5.960802 0.743356 0.424677
N -4.883684 3.165409 1.451798
C -7.095999 4.049288 1.796701
H -6.327784 3.269133 -0.080367
C -8.568023 3.912151 1.427928
H -6.744624 5.063625 1.595642
H -6.953263 3.850000 2.860200
C -9.046765 2.486243 1.678979
H -8.703228 4.159658 0.372532
H -9.160228 4.615732 2.016556
C -8.199845 1.496325 0.888820
H -10.094456 2.385729 1.388503
H -8.970354 2.260407 2.745117
H -8.303704 1.681225 -0.181775
H -8.525776 0.472671 1.085257
H -6.577739 1.397341 2.331393
C 1.248651 5.527934 -3.520304
C 1.287434 6.199712 -2.132676
N 1.675799 4.172764 -3.369917
N 0.307257 5.568838 -1.306103
C 0.939350 7.684897 -2.264482
H 2.307854 6.085804 -1.723851
C 1.896284 8.388420 -3.218886
H 0.980247 8.144656 -1.274694
H -0.085790 7.766694 -2.629754
C 1.861142 7.723586 -4.590741
H 2.911426 8.339300 -2.817955
H 1.619727 9.441146 -3.305101
C 2.210166 6.245123 -4.471855
H 2.567654 8.213860 -5.263468
H 0.861479 7.827967 -5.018848
H 3.225213 6.126689 -4.088709
H 2.162611 5.761591 -5.449954
H 0.215275 5.595160 -3.906173
C -2.980612 -3.243971 -0.128328
C -2.403475 -4.431810 0.484848
C -2.868011 -3.041936 -1.498694
C -3.449922 -1.927726 -2.103278
H -2.342426 -3.746614 -2.124697
C -4.139033 -1.009676 -1.320007
C -4.260357 -1.199093 0.056736
H -4.605592 -0.141186 -1.759190
C -3.675263 -2.313903 0.645140
C -5.017356 -0.256983 0.868852
H -3.757067 -2.491564 1.706654
C -3.364911 -1.740090 -3.544792
H -4.937930 -0.393129 1.958652
H -1.746092 -5.033015 -0.162224
H -3.714650 -0.766594 -3.922053
C 1.127207 -2.750209 2.939344
C 0.006311 -3.570558 3.375827
C 1.397236 -1.544437 3.575507
C 2.491168 -0.767926 3.193166
H 0.777844 -1.190570 4.385340
C 3.308692 -1.205633 2.158118
C 3.050176 -2.413670 1.510236
H 4.166089 -0.630619 1.843572
C 1.956785 -3.176767 1.902087
C 3.932138 -2.888598 0.453394
H 1.734396 -4.118737 1.424568
C 2.794607 0.474551 3.888994
H 3.576239 -3.765928 -0.108869
H -0.684453 -3.095217 4.089457
H 3.575430 1.101331 3.430985
C -2.348202 3.510387 0.889331
C -3.741086 3.367284 0.490230
C -1.425888 4.067363 0.011342
C -0.096884 4.246246 0.395154
H -1.719293 4.385588 -0.977254
C 0.304061 3.851902 1.665977
C -0.610178 3.291388 2.558083
H 1.323634 3.982992 1.994723
C -1.931190 3.119411 2.161696
C -0.195863 2.916491 3.902712
H -2.663339 2.694625 2.831343
C 0.857053 4.867463 -0.512764
H -0.931536 2.343442 4.487952
H -3.955220 3.554517 -0.573581
H 1.911318 4.831999 -0.197118
C 1.080217 -0.690152 -4.217450
C 0.280600 -1.749931 -4.815447
C 2.272238 -0.996780 -3.572120
C 3.067123 0.012770 -3.029270
H 2.615050 -2.016754 -3.489626
C 2.651582 1.335075 -3.129351
C 1.457330 1.658152 -3.773984
H 3.247401 2.138921 -2.725037
C 0.675827 0.641737 -4.310204
C 1.045012 3.047787 -3.912480
H -0.249743 0.860209 -4.820461
C 4.335216 -0.308679 -2.389868
H 0.024223 3.208543 -4.292754
H 0.586330 -2.777959 -4.566153
H 4.824658 0.519373 -1.854083
C -2.097211 -5.946927 2.233238
C -1.244165 -5.539037 3.451520
N -2.666527 -4.762246 1.672574
N -0.142683 -4.758767 2.982584
C -0.701126 -6.789775 4.147841
H -1.887447 -4.969343 4.146543
C -1.835254 -7.710202 4.581822
H -0.107491 -6.481735 5.011223
H -0.038155 -7.309323 3.453839
C -2.681463 -8.112160 3.378658
H -2.463795 -7.193868 5.311171
H -1.422196 -8.598692 5.063590
C -3.230580 -6.874421 2.679911
H -3.508354 -8.749717 3.697961
H -2.067792 -8.683244 2.678126
H -3.883810 -6.318791 3.354839
H -3.817657 -7.159116 1.804148
H -1.441619 -6.470696 1.514178
C -6.484634 1.530582 1.181466
C -6.004421 2.967254 0.892099
N -5.739584 0.637243 0.351594
N -4.645182 3.076856 1.319206
C -6.851770 3.967502 1.683219
H -6.113237 3.154351 -0.191551
C -8.329269 3.825307 1.339072
H -6.502902 4.977953 1.459424
H -6.693079 3.786538 2.747655
C -8.805008 2.404384 1.622002
H -8.480200 4.054610 0.281679
H -8.912196 4.539494 1.924320
C -7.970601 1.400252 0.836458
H -9.856989 2.299764 1.348938
H -8.712853 2.197012 2.690579
H -8.090504 1.566672 -0.235482
H -8.294137 0.380386 1.055403
H -6.326872 1.325055 2.255807
C -2.894952 -2.435367 -5.722495
C -1.427567 -2.570321 -6.176819
N -2.944575 -2.648885 -4.310396
N -0.680503 -1.501639 -5.592230
C -1.342827 -2.454886 -7.701189
H -1.056690 -3.559464 -5.852041
C -2.204772 -3.513027 -8.378656
H -0.299041 -2.561032 -8.004260
H -1.675278 -1.456136 -7.989480
C -3.655843 -3.382689 -7.928287
H -1.832140 -4.506621 -8.118782
H -2.137028 -3.401712 -9.462726
C -3.752365 -3.499969 -6.412222
H -4.264707 -4.159330 -8.395337
H -4.047701 -2.413009 -8.243840
H -3.407207 -4.483030 -6.087147
H -4.787956 -3.383415 -6.085210
H -3.249719 -1.426253 -6.000372
C 2.556015 2.011045 5.629303
C 1.288066 2.885602 5.703857
N 2.217308 0.793100 4.963364
N 0.924004 3.254759 4.372204
C 1.580039 4.156808 6.505611
H 0.494525 2.299117 6.201495
C 2.071538 3.818598 7.907652
H 0.669859 4.758389 6.554652
H 2.335183 4.735091 5.970351
C 3.323827 2.951415 7.835673
H 1.288652 3.280994 8.447614
H 2.284295 4.740013 8.453560
C 3.043188 1.680767 7.042850
H 3.656893 2.689312 8.841860
H 4.126296 3.512652 7.351325
H 2.275163 1.086950 7.541404
H 3.945077 1.069192 6.969865
H 3.333138 2.577511 5.084814
C 5.892939 -2.850157 -0.811791
C 6.106039 -1.729486 -1.849634
N 5.044801 -2.343871 0.220666
N 4.849695 -1.456355 -2.472954
C 7.096817 -2.194481 -2.920469
H 6.507105 -0.844591 -1.322986
C 8.427521 -2.596893 -2.296920
H 7.241148 -1.386073 -3.640487
H 6.657325 -3.041039 -3.451014
C 8.217996 -3.703080 -1.268400
H 8.878133 -1.729135 -1.809707
H 9.110708 -2.935812 -3.078372
C 7.236359 -3.249324 -0.195075
H 9.170058 -3.969685 -0.805024
H 7.826080 -4.592523 -1.767068
H 7.636997 -2.388454 0.343151
H 7.066621 -4.048334 0.529910
H 5.442466 -3.716705 -1.328847
C 1.452470 6.051389 -2.433755
C 1.388691 5.353808 -3.807607
N 0.489818 5.434169 -1.577024
N 1.821836 4.002384 -3.640257
C 2.329979 6.055188 -4.790739
H 0.347921 5.411661 -4.174715
C 1.974873 7.530330 -4.930206
H 2.264845 5.553365 -5.758464
H 3.352390 5.946240 -4.424948
C 2.034738 8.220940 -3.572025
H 0.966812 7.624508 -5.340865
H 2.666961 8.009587 -5.625614
C 1.098224 7.533126 -2.586378
H 1.753744 9.271185 -3.672510
H 3.057468 8.181563 -3.189967
H 0.065888 7.605878 -2.933147
H 1.157021 8.011365 -1.606333
H 2.480755 5.947280 -2.042599
