372
cid:69, pot: -240.33399268031184
Pd -0.153431 7.167758 -0.134921
Pd 0.087479 -6.706165 -0.619300
C 5.193437 -1.232237 1.229181
C 5.208857 -2.442001 1.223539
C 5.169748 -3.848350 1.257079
C 6.155912 -4.577052 1.899552
C 6.083166 -5.972170 1.982586
C 5.021220 -6.657513 1.450037
C 3.997079 -5.952389 0.782725
C 2.857279 -6.590316 0.256809
N 1.901241 -5.934555 -0.366356
C 2.010636 -4.595997 -0.561460
C 3.061524 -3.878751 -0.066355
C 4.078181 -4.536414 0.655307
H 6.990135 -4.059078 2.347994
H 6.873037 -6.507026 2.487131
H 4.959060 -7.730629 1.535246
H 2.732980 -7.665119 0.362967
H 1.206937 -4.137927 -1.134783
H 3.127824 -2.812639 -0.211935
C 5.152840 0.174954 1.237849
C 6.194624 0.910768 1.814392
C 6.147571 2.287361 1.823886
C 5.055957 2.959062 1.259881
C 4.012322 2.222350 0.687887
C 4.060894 0.846850 0.674985
H 7.037338 0.393060 2.247774
H 6.952981 2.855869 2.264424
H 3.178226 2.743308 0.246144
H 3.261660 0.276941 0.228387
C 5.030685 4.366277 1.244515
C 5.019258 5.576007 1.204155
C 5.101706 6.976209 1.102296
C 6.309143 7.611896 1.334389
C 6.440720 8.993698 1.167671
C 5.380323 9.759579 0.750143
C 4.131084 9.159040 0.512531
C 3.003538 9.885214 0.066397
C 1.814432 9.244020 -0.124745
N 1.661251 7.920764 0.129188
C 2.695459 7.204089 0.523008
C 3.971479 7.756906 0.712818
H 7.164726 7.027615 1.637021
H 7.397644 9.455332 1.357903
H 5.491654 10.821959 0.600065
H 3.096005 10.942943 -0.121480
H 0.933427 9.769029 -0.489613
H 2.527832 6.145935 0.711567
C -0.131722 -1.466551 5.039876
C -0.056688 -2.673339 4.999389
C 0.084273 -4.071413 4.910843
C 0.431878 -4.828207 6.016119
C 0.632203 -6.209526 5.910111
C 0.509581 -6.850844 4.704331
C 0.147163 -6.116595 3.554802
C 0.045358 -6.706623 2.280512
N -0.298348 -6.025008 1.207957
C -0.612763 -4.709206 1.311096
C -0.516454 -4.035245 2.494747
C -0.097348 -4.717320 3.655075
H 0.558769 -4.342901 6.971927
H 0.900107 -6.767338 6.794122
H 0.685845 -7.911583 4.623660
H 0.260956 -7.764249 2.148222
H -0.948060 -4.231841 0.392945
H -0.754214 -2.985563 2.558909
C -0.223254 -0.061355 5.056489
C -0.493501 0.620594 6.248180
C -0.603703 1.993634 6.249438
C -0.440524 2.715702 5.060440
C -0.149152 2.033889 3.873423
C -0.045443 0.661328 3.870453
H -0.624290 0.063988 7.164236
H -0.822092 2.520201 7.166514
H -0.010702 2.592845 2.962127
H 0.175437 0.131285 2.957608
C -0.605969 4.113478 5.068566
C -0.792533 5.309520 5.077267
C -1.093199 6.680914 5.156928
C -1.448547 7.234253 6.375192
C -1.818412 8.578542 6.477240
C -1.858779 9.386764 5.367930
C -1.500146 8.870523 4.109958
C -1.537588 9.642069 2.926361
C -1.162216 9.083922 1.739323
N -0.721212 7.804692 1.653267
C -0.691421 7.046376 2.731346
C -1.088279 7.510609 3.994973
H -1.447842 6.613383 7.257994
H -2.087656 8.975547 7.444058
H -2.164845 10.418054 5.446894
H -1.867299 10.667585 2.973697
H -1.200642 9.642959 0.806128
H -0.333824 6.025429 2.614586
C -5.180685 1.712844 -2.256497
C -5.183232 2.922655 -2.264825
C -5.127453 4.328708 -2.308813
C -6.064129 5.061441 -3.016545
C -5.969110 6.454855 -3.109570
C -4.934137 7.133557 -2.519161
C -3.963311 6.424238 -1.780086
C -2.854502 7.055481 -1.184895
N -1.950994 6.396801 -0.490035
C -2.089533 5.062280 -0.287991
C -3.111750 4.350390 -0.847219
C -4.068529 5.010550 -1.644708
H -6.874723 4.548226 -3.511175
H -6.719460 6.993011 -3.668007
H -4.853475 8.204901 -2.611593
H -2.711183 8.127850 -1.294531
H -1.337378 4.602041 0.348910
H -3.200650 3.287264 -0.691217
C -5.151158 0.305066 -2.231571
C -3.945588 -0.360987 -1.979711
C -3.909979 -1.736372 -1.936741
C -5.079978 -2.477933 -2.136894
C -6.282750 -1.811691 -2.403654
C -6.317536 -0.435500 -2.453333
H -3.047383 0.214708 -1.822634
H -2.982853 -2.251715 -1.745090
H -7.184093 -2.383926 -2.564779
H -7.246248 0.077752 -2.654047
C -5.070702 -3.882064 -2.039661
C -5.081554 -5.086164 -1.915435
C -5.190721 -6.474391 -1.718895
C -6.420367 -7.092513 -1.868299
C -6.577478 -8.458271 -1.614843
C -5.519871 -9.224808 -1.191135
C -4.250134 -8.641929 -1.031259
C -3.124768 -9.368919 -0.581071
C -1.916781 -8.746002 -0.461771
N -1.744375 -7.441788 -0.789516
C -2.774126 -6.724410 -1.193641
C -4.066302 -7.257786 -1.318306
H -7.272436 -6.506525 -2.177256
H -7.550958 -8.906224 -1.743647
H -5.649457 -10.273812 -0.976294
H -3.234072 -10.412465 -0.332223
H -1.035554 -9.270552 -0.096733
H -2.589888 -5.681434 -1.442418
C 0.352173 1.924614 -5.764806
C 0.295009 3.132716 -5.731702
C 0.169673 4.532351 -5.654663
C -0.098032 5.290476 -6.781573
C -0.281262 6.675022 -6.692249
C -0.223872 7.319125 -5.482792
C 0.051326 6.583269 -4.310579
C 0.076144 7.175319 -3.033305
N 0.333322 6.490877 -1.938848
C 0.630999 5.169162 -2.017708
C 0.605905 4.494092 -3.204121
C 0.280105 5.180128 -4.391705
H -0.172223 4.803726 -7.742181
H -0.483658 7.233989 -7.592910
H -0.386929 8.382931 -5.416458
H -0.129850 8.236490 -2.917205
H 0.887682 4.688791 -1.075500
H 0.826183 3.439854 -3.251442
C 0.407426 0.518059 -5.783563
C 0.561726 -0.192065 -4.586692
C 0.608135 -1.567601 -4.598369
C 0.505478 -2.265930 -5.807036
C 0.350118 -1.556126 -7.004065
C 0.300007 -0.179734 -6.992255
H 0.647933 0.348778 -3.657623
H 0.737492 -2.117283 -3.679993
H 0.271879 -2.095052 -7.936521
H 0.181838 0.367542 -7.915495
C 0.588426 -3.670911 -5.831125
C 0.688565 -4.877012 -5.851521
C 0.891295 -6.265657 -5.943101
C 1.161602 -6.840643 -7.172786
C 1.441485 -8.205791 -7.284911
C 1.475361 -9.013973 -6.175371
C 1.196706 -8.476038 -4.906288
C 1.229965 -9.247337 -3.722341
C 0.928408 -8.667276 -2.524755
N 0.562616 -7.364987 -2.427555
C 0.543594 -6.606571 -3.505850
C 0.873991 -7.093468 -4.780057
H 1.167817 -6.220907 -8.056365
H 1.647527 -8.619602 -8.260310
H 1.714651 -10.062146 -6.262902
H 1.497118 -10.290553 -3.777863
H 0.967096 -9.226993 -1.592007
H 0.247846 -5.567158 -3.380872
Pd 0.345303 -6.915114 1.179486
Pd 0.589306 6.658463 -1.731900
C -4.956956 1.369645 -0.883899
C -4.943363 2.559575 -1.102110
C -4.888353 3.951977 -1.298903
C -6.021870 4.737499 -1.178765
C -5.953106 6.128565 -1.316239
C -4.757079 6.757313 -1.551153
C -3.578779 5.992394 -1.684787
C -2.313267 6.578718 -1.878217
N -1.213197 5.867025 -2.003523
C -1.275480 4.511401 -1.991867
C -2.448648 3.845359 -1.781983
C -3.640147 4.572988 -1.587531
H -6.971607 4.268773 -0.970019
H -6.858492 6.707971 -1.220958
H -4.705907 7.831103 -1.635068
H -2.211338 7.660263 -1.921256
H -0.331248 3.996690 -2.158771
H -2.482245 2.768202 -1.756309
C -4.952307 -0.013244 -0.620178
C -6.146085 -0.683527 -0.328980
C -6.135042 -2.035793 -0.067477
C -4.929352 -2.747706 -0.088071
C -3.735443 -2.075699 -0.374494
C -3.746718 -0.725112 -0.639565
H -7.076175 -0.135062 -0.314798
H -7.056107 -2.554549 0.152755
H -2.810544 -2.629060 -0.398839
H -2.829262 -0.206247 -0.867787
C -4.930566 -4.135255 0.148170
C -4.931658 -5.333126 0.322664
C -5.002969 -6.732683 0.440249
C -6.228016 -7.368944 0.338967
C -6.322012 -8.763291 0.376493
C -5.199239 -9.544620 0.495982
C -3.933887 -8.942195 0.612824
C -2.737346 -9.686431 0.722662
C -1.543776 -9.038568 0.854217
N -1.461607 -7.686375 0.914662
C -2.552584 -6.956449 0.791050
C -3.825080 -7.521033 0.612553
H -7.122574 -6.777457 0.216854
H -7.294207 -9.224999 0.294822
H -5.273266 -10.620796 0.500984
H -2.780306 -10.763574 0.698766
H -0.602213 -9.581108 0.917860
H -2.439544 -5.875666 0.841849
C -1.315047 2.457954 4.453324
C -1.344995 3.636738 4.182599
C -1.415544 4.993104 3.811706
C -2.114396 5.910148 4.577121
C -2.234670 7.244637 4.172177
C -1.680721 7.678564 2.995209
C -0.951934 6.776979 2.190448
C -0.394404 7.148044 0.951988
N 0.290874 6.310472 0.202353
C 0.520310 5.044552 0.633482
C -0.001921 4.575843 1.804915
C -0.788676 5.425594 2.608671
H -2.580761 5.587601 5.495635
H -2.785168 7.931649 4.796061
H -1.794334 8.702570 2.677087
H -0.526640 8.158678 0.572942
H 1.147626 4.433742 -0.011943
H 0.175275 3.562420 2.127598
C -1.265512 1.080473 4.741882
C -1.447844 0.620163 6.050715
C -1.374729 -0.727533 6.326187
C -1.123414 -1.645150 5.298406
C -0.962499 -1.185004 3.986463
C -1.028938 0.162091 3.711809
H -1.636727 1.327612 6.844350
H -1.505341 -1.083079 7.337392
H -0.782496 -1.894421 3.194936
H -0.902066 0.521670 2.702974
C -1.001581 -3.013809 5.603862
C -0.855865 -4.182782 5.882678
C -0.632213 -5.507858 6.296890
C -0.741537 -5.833611 7.637971
C -0.460484 -7.125421 8.092537
C -0.048722 -8.106250 7.224329
C 0.070755 -7.823868 5.851846
C 0.506794 -8.781217 4.907885
C 0.586472 -8.446342 3.587731
N 0.231807 -7.218744 3.134152
C -0.160118 -6.291885 3.985901
C -0.244688 -6.520578 5.367958
H -1.040325 -5.073709 8.343812
H -0.558270 -7.342953 9.145071
H 0.187550 -9.096292 7.581429
H 0.776448 -9.769839 5.243238
H 0.939639 -9.152184 2.838170
H -0.431461 -5.320573 3.577639
C 5.913908 -1.694191 0.055661
C 5.893193 -2.887072 0.256569
C 5.826296 -4.281586 0.437733
C 6.936433 -5.084074 0.240997
C 6.850404 -6.476044 0.361115
C 5.659340 -7.087485 0.657631
C 4.505673 -6.304072 0.875298
C 3.244869 -6.870994 1.142198
N 2.168695 -6.142245 1.351505
C 2.255711 -4.788205 1.357100
C 3.424577 -4.139452 1.079043
C 4.586748 -4.884717 0.794287
H 7.880259 -4.628718 -0.017766
H 7.737760 -7.069331 0.202909
H 5.593439 -8.161396 0.728075
H 3.126410 -7.951456 1.175017
H 1.337310 -4.258548 1.600244
H 3.475562 -3.062536 1.071456
C 5.907783 -0.304673 -0.173372
C 4.705495 0.344598 -0.479106
C 4.686615 1.705012 -0.688105
C 5.867648 2.449430 -0.588760
C 7.072572 1.797324 -0.297667
C 7.093018 0.435019 -0.094959
H 3.797473 -0.232661 -0.551087
H 3.762800 2.207021 -0.925613
H 7.984885 2.370636 -0.227740
H 8.021571 -0.066436 0.134367
C 5.854874 3.848332 -0.743479
C 5.847099 5.055645 -0.831993
C 5.909739 6.460397 -0.850968
C 7.126017 7.094177 -0.662823
C 7.212942 8.488426 -0.608803
C 6.090610 9.271444 -0.721644
C 4.833901 8.672538 -0.920346
C 3.637975 9.418426 -1.025821
C 2.452497 8.775648 -1.233295
N 2.378791 7.428958 -1.371622
C 3.469208 6.696519 -1.258946
C 4.733423 7.253518 -1.011492
H 8.019480 6.499836 -0.547486
H 8.178652 8.947629 -0.462382
H 6.158584 10.346088 -0.658384
H 3.674876 10.492498 -0.937474
H 1.510634 9.317815 -1.296692
H 3.362207 5.619890 -1.373633
C 1.971491 -2.717957 -5.079928
C 1.987294 -3.899950 -4.822055
C 2.047247 -5.260422 -4.466940
C 2.678968 -6.185649 -5.280145
C 2.789068 -7.526873 -4.895964
C 2.294814 -7.960307 -3.692393
C 1.639609 -7.049667 -2.836249
C 1.153022 -7.419172 -1.567738
N 0.541012 -6.571520 -0.768069
C 0.318804 -5.295124 -1.171955
C 0.775389 -4.828594 -2.371035
C 1.484407 -5.690646 -3.232039
H 3.097763 -5.864647 -6.221843
H 3.284152 -8.220525 -5.558047
H 2.401050 -8.990307 -3.391466
H 1.281906 -8.436392 -1.206342
H -0.243415 -4.674059 -0.477222
H 0.608719 -3.807177 -2.672931
C 1.956689 -1.338013 -5.358017
C 1.405340 -0.443694 -4.432379
C 1.395636 0.907275 -4.695479
C 1.933150 1.396057 -5.891880
C 2.485542 0.502053 -6.817269
C 2.498646 -0.849544 -6.552637
H 0.985260 -0.823683 -3.514658
H 0.962438 1.597703 -3.989899
H 2.899315 0.879390 -7.740626
H 2.923158 -1.538954 -7.267045
C 1.894272 2.772486 -6.184275
C 1.833746 3.952856 -6.445199
C 1.706281 5.296933 -6.838950
C 1.899664 5.645504 -8.164441
C 1.706780 6.959855 -8.600239
C 1.300992 7.941010 -7.729483
C 1.102324 7.635828 -6.371168
C 0.670082 8.593196 -5.425466
C 0.517146 8.235466 -4.117641
N 0.797027 6.984041 -3.676317
C 1.178951 6.056529 -4.531963
C 1.329931 6.308412 -5.904386
H 2.192257 4.886410 -8.873577
H 1.867079 7.195105 -9.641404
H 1.130591 8.948921 -8.074013
H 0.462201 9.600455 -5.749364
H 0.163910 8.941879 -3.368721
H 1.389151 5.065872 -4.134730
