308
cid:69, pot: -187.235553269509
Pd -0.272838 4.771809 -0.854132
Pd 0.315532 -4.453387 0.249144
C 5.890235 -1.947746 0.083325
C 5.767687 -3.149430 0.151737
C 5.725077 -4.556333 0.108264
C 6.909432 -5.270406 0.072586
C 6.910586 -6.659518 -0.091922
C 5.736637 -7.351452 -0.256804
C 4.507353 -6.668676 -0.215653
C 3.265752 -7.315865 -0.407197
C 2.107188 -6.600338 -0.325313
N 2.098487 -5.280181 -0.016643
C 3.237807 -4.633300 0.133725
C 4.487155 -5.261376 0.010426
H 7.847925 -4.744258 0.157261
H 7.853947 -7.183665 -0.112049
H 5.742623 -8.417624 -0.420646
H 3.247895 -8.372492 -0.621268
H 1.137001 -7.059417 -0.503804
H 3.183366 -3.574812 0.376405
C 6.028135 -0.554321 -0.094773
C 7.301980 0.018432 -0.169358
C 7.429840 1.371438 -0.424401
C 6.310260 2.164261 -0.612075
C 5.031048 1.607720 -0.534943
C 4.900662 0.246552 -0.264906
H 8.176997 -0.598904 -0.035974
H 8.413436 1.811579 -0.488367
H 6.437974 3.207845 -0.852640
H 3.925531 -0.201340 -0.160782
C 3.834219 2.427008 -0.747655
C 3.773887 3.771529 -0.367076
C 2.601525 4.478583 -0.539574
N 1.502144 3.915316 -1.048875
C 1.547582 2.641122 -1.457553
C 2.686859 1.878162 -1.336462
H 4.624845 4.254131 0.085259
H 2.521376 5.524804 -0.259180
H 0.628473 2.248404 -1.890023
H 2.701929 0.865920 -1.706816
C 1.048104 -1.623324 5.599199
C 1.033364 -2.832307 5.556842
C 0.905795 -4.233318 5.618380
C 0.992093 -4.870919 6.843032
C 0.750439 -6.243795 6.961036
C 0.387164 -6.992764 5.869644
C 0.298026 -6.389451 4.601861
C -0.098562 -7.095721 3.443918
C -0.136259 -6.457496 2.238607
N 0.242737 -5.163470 2.099004
C 0.585395 -4.461266 3.161454
C 0.599246 -5.003907 4.455834
H 1.234136 -4.296055 7.723737
H 0.829982 -6.707782 7.932256
H 0.165172 -8.043574 5.970475
H -0.372664 -8.135222 3.526593
H -0.472482 -6.960699 1.334639
H 0.879354 -3.426123 3.003158
C 0.964823 -0.215448 5.658760
C 1.068566 0.438818 6.890582
C 0.903661 1.810259 6.952787
C 0.631155 2.541847 5.809231
C 0.530910 1.903401 4.570431
C 0.710512 0.522738 4.504677
H 1.267841 -0.130043 7.785730
H 0.977189 2.313830 7.904682
H 0.463022 3.604023 5.891222
H 0.679214 0.009830 3.556848
C 0.224366 2.659215 3.352322
C 0.661627 3.974007 3.161412
C 0.386406 4.620059 1.973568
N -0.277189 4.023497 0.979116
C -0.737746 2.778215 1.152362
C -0.519805 2.077447 2.316865
H 1.234545 4.479466 3.921500
H 0.706500 5.642320 1.794325
H -1.293423 2.357027 0.315723
H -0.933491 1.089537 2.438336
C -5.846997 2.264896 -0.693202
C -5.724021 3.466837 -0.755018
C -5.681596 4.873530 -0.703741
C -6.866256 5.586885 -0.661254
C -6.867716 6.975092 -0.488735
C -5.693681 7.666534 -0.322848
C -4.464186 6.984677 -0.370910
C -3.222400 7.631365 -0.178961
C -2.063621 6.916859 -0.267557
N -2.055087 5.598333 -0.583244
C -3.194501 4.951746 -0.734515
C -4.443871 5.578589 -0.604903
H -7.804650 5.060727 -0.746529
H -7.811184 7.498598 -0.463300
H -5.699681 8.731770 -0.152996
H -3.204465 8.686847 0.040622
H -1.093348 7.375536 -0.088962
H -3.140033 3.894594 -0.983210
C -5.985146 0.870599 -0.522595
C -7.258868 0.296422 -0.459195
C -7.387290 -1.057842 -0.211238
C -6.268197 -1.850608 -0.019663
C -4.989108 -1.292642 -0.085508
C -4.858157 0.069884 -0.348562
H -8.133602 0.913516 -0.595577
H -8.370849 -1.499177 -0.155860
H -6.396665 -2.895328 0.215317
H -3.882659 0.519060 -0.443799
C -3.792859 -2.111669 0.131103
C -3.728779 -3.454275 -0.255509
C -2.556692 -4.160880 -0.079214
N -1.460830 -3.598901 0.439212
C -1.510422 -2.326808 0.853926
C -2.649728 -1.564481 0.729741
H -4.576417 -3.935664 -0.715267
H -2.473711 -5.205741 -0.364232
H -0.594430 -1.935209 1.293918
H -2.668151 -0.554276 1.105228
C -0.980097 1.942256 -6.210273
C -0.969654 3.151292 -6.166703
C -0.846669 4.552769 -6.226731
C -0.929549 5.190859 -7.451400
C -0.692364 6.564601 -7.567498
C -0.336868 7.314146 -6.473988
C -0.251347 6.710351 -5.206188
C 0.137761 7.417188 -4.046127
C 0.172736 6.778348 -2.841101
N -0.202212 5.482865 -2.703795
C -0.537990 4.780116 -3.768161
C -0.548209 5.323642 -5.062262
H -1.165506 4.615580 -8.333619
H -0.769096 7.028895 -8.538831
H -0.118246 8.365785 -6.573117
H 0.408503 8.457819 -4.126903
H 0.503482 7.282247 -1.935524
H -0.828786 3.743947 -3.611965
C -0.891804 0.534714 -6.270154
C -0.982622 -0.118887 -7.503323
C -0.813195 -1.489770 -7.565048
C -0.548795 -2.221574 -6.419665
C -0.461372 -1.583698 -5.179618
C -0.645699 -0.203688 -5.114442
H -1.175491 0.450151 -8.399794
H -0.876802 -1.992775 -8.517980
H -0.376836 -3.283066 -6.500874
H -0.624423 0.308653 -4.165975
C -0.162724 -2.339433 -3.959484
C -0.597442 -3.655654 -3.772768
C -0.329122 -4.301765 -2.583401
N 0.325224 -3.703944 -1.583633
C 0.782945 -2.457020 -1.752287
C 0.571414 -1.755971 -2.917813
H -1.163009 -4.162304 -4.537667
H -0.647459 -5.325116 -2.407152
H 1.330677 -2.034423 -0.911038
H 0.982360 -0.766530 -3.035391
Pd 2.236283 4.306455 -0.392116
Pd -1.584298 -4.177082 -0.075470
C -5.918841 0.135038 -0.062740
C -6.223511 -1.030803 0.044844
C -6.663384 -2.344648 0.296907
C -8.012642 -2.583873 0.486908
C -8.476361 -3.850447 0.857747
C -7.602017 -4.885600 1.077013
C -6.222001 -4.691911 0.884549
C -5.266620 -5.706076 1.120789
C -3.945142 -5.462233 0.885952
N -3.511070 -4.280419 0.382781
C -4.367244 -3.297470 0.183098
C -5.739775 -3.422948 0.449441
H -8.716652 -1.775433 0.362261
H -9.536503 -4.000732 0.994142
H -7.959316 -5.851194 1.398907
H -5.593836 -6.664943 1.489872
H -3.179968 -6.207811 1.092055
H -3.974405 -2.366047 -0.217466
C -5.552666 1.498040 -0.090167
C -6.539755 2.488174 -0.051048
C -6.171189 3.819736 0.003274
C -4.835219 4.183112 0.024804
C -3.837784 3.205751 -0.019498
C -4.208162 1.863803 -0.087528
H -7.581893 2.208007 -0.055020
H -6.933496 4.583175 0.040109
H -4.574155 5.226044 0.111105
H -3.460057 1.091099 -0.162563
C -2.418267 3.569513 0.019590
C -1.934061 4.746574 -0.560366
C -0.579635 5.009800 -0.543093
N 0.300340 4.163781 0.000178
C -0.143223 3.050248 0.596665
C -1.481329 2.729915 0.637269
H -2.604402 5.437334 -1.045278
H -0.170389 5.916011 -0.980140
H 0.619931 2.416249 1.045842
H -1.809934 1.843610 1.155488
C -1.779151 -1.970363 -5.755443
C -2.177146 -3.091037 -5.533028
C -2.545012 -4.442550 -5.388929
C -2.955406 -5.157850 -6.499650
C -3.212076 -6.530739 -6.420164
C -3.031466 -7.215542 -5.244466
C -2.626317 -6.527615 -4.086037
C -2.393891 -7.176239 -2.852166
C -2.030474 -6.445695 -1.758669
N -1.927315 -5.094631 -1.799434
C -2.102134 -4.456841 -2.940460
C -2.418432 -5.118403 -4.137250
H -3.063526 -4.650626 -7.446131
H -3.533575 -7.055384 -7.306926
H -3.194251 -8.280742 -5.195451
H -2.502446 -8.247069 -2.789067
H -1.807568 -6.916738 -0.803754
H -2.006791 -3.373433 -2.927402
C -1.222747 -0.702155 -6.028700
C -1.206017 -0.214570 -7.339414
C -0.586083 0.990696 -7.613108
C 0.023315 1.717028 -6.604043
C 0.009401 1.246269 -5.288620
C -0.627143 0.038036 -5.009513
H -1.668603 -0.784525 -8.130470
H -0.567623 1.363331 -8.626015
H 0.538197 2.632026 -6.851066
H -0.688628 -0.328794 -3.997477
C 0.665668 1.992441 -4.210899
C 0.726131 3.389798 -4.201750
C 1.312666 4.041485 -3.136242
N 1.817662 3.379758 -2.091113
C 1.804458 2.040834 -2.094171
C 1.254744 1.321100 -3.130771
H 0.295773 3.964761 -5.005318
H 1.381040 5.124819 -3.099536
H 2.254582 1.559768 -1.226956
H 1.290889 0.243890 -3.119279
C 6.570313 -0.006060 -0.399782
C 6.874089 1.159377 -0.513934
C 7.313334 2.471907 -0.773687
C 8.662038 2.709573 -0.970361
C 9.125006 3.974166 -1.348913
C 8.250317 5.008753 -1.569085
C 6.871022 4.816802 -1.369948
C 5.915268 5.830536 -1.606460
C 4.594545 5.588568 -1.365213
N 4.161831 4.409126 -0.855411
C 5.018247 3.426448 -0.654874
C 6.389850 3.550097 -0.927171
H 9.366009 1.901221 -0.844993
H 10.184516 4.123067 -1.490537
H 8.606750 5.972684 -1.896839
H 6.241498 6.787624 -1.980910
H 3.829162 6.333838 -1.571277
H 4.626429 2.497158 -0.248527
C 6.204772 -1.368923 -0.364938
C 7.192246 -2.358992 -0.392736
C 6.824372 -3.691138 -0.439897
C 5.488560 -4.055025 -0.465305
C 4.490710 -3.077812 -0.432371
C 4.860384 -1.735326 -0.371414
H 8.234310 -2.078553 -0.385795
H 7.587018 -4.454562 -0.468054
H 5.228321 -5.098541 -0.546017
H 4.111576 -0.962406 -0.305437
C 3.071457 -3.442071 -0.475430
C 2.584974 -4.615206 0.110369
C 1.230578 -4.878714 0.089321
N 0.352648 -4.036216 -0.462904
C 0.798836 -2.926821 -1.065300
C 2.137014 -2.606744 -1.102737
H 3.253297 -5.302740 0.602609
H 0.819597 -5.781997 0.530852
H 0.037540 -2.295901 -1.521749
H 2.467581 -1.724190 -1.625841
C 2.408184 2.109877 5.294758
C 2.810099 3.228913 5.070968
C 3.182286 4.579087 4.925133
C 3.589653 5.296037 6.035988
C 3.850618 6.667895 5.954241
C 3.677287 7.350223 4.776025
C 3.275373 6.660620 3.617588
C 3.049900 7.306738 2.381254
C 2.688876 6.574798 1.288015
N 2.581642 5.224111 1.331408
C 2.749994 4.588431 2.474639
C 3.063194 5.252102 3.671227
H 3.692076 4.790765 6.984236
H 4.169616 7.193867 6.841150
H 3.843365 8.414822 4.725074
H 3.161856 8.377315 2.315959
H 2.471164 7.044302 0.331144
H 2.651551 3.505496 2.464043
C 1.847249 0.843826 5.568450
C 1.818791 0.361585 6.881022
C 1.194756 -0.841694 7.154321
C 0.592688 -1.571332 6.143104
C 0.618317 -1.105683 4.826057
C 1.259079 0.100287 4.547329
H 2.275576 0.934149 7.673607
H 1.167315 -1.210148 8.168490
H 0.074411 -2.484386 6.389346
H 1.329698 0.463014 3.534432
C -0.030744 -1.854876 3.745977
C -0.093708 -3.252165 3.741311
C -0.673935 -3.906485 2.673986
N -1.170337 -3.247542 1.623053
C -1.154335 -1.908682 1.621214
C -0.610420 -1.186283 2.659032
H 0.329836 -3.824939 4.550146
H -0.744072 -4.989872 2.640433
H -1.596986 -1.429751 0.748845
H -0.643817 -0.109096 2.643452
