372
cid:69, pot: -240.45723363065667
Pd -0.513051 5.769760 2.944976
Pd 0.179397 -6.235775 -3.995200
C 5.321880 -1.613876 -0.582796
C 5.383654 -2.677972 -1.155235
C 5.407027 -3.940101 -1.777291
C 6.524310 -4.754094 -1.703844
C 6.523531 -6.032818 -2.272530
C 5.408290 -6.526811 -2.899619
C 4.249999 -5.727040 -3.000108
C 3.057730 -6.191667 -3.587729
N 1.976518 -5.447160 -3.682890
C 1.994433 -4.163181 -3.243744
C 3.090527 -3.625410 -2.632748
C 4.249815 -4.408780 -2.461601
H 7.406858 -4.397677 -1.194530
H 7.414609 -6.637137 -2.199658
H 5.405612 -7.520816 -3.317529
H 2.998072 -7.204237 -3.978962
H 1.079886 -3.597238 -3.410394
H 3.086199 -2.609756 -2.271345
C 5.228182 -0.379849 0.088252
C 6.329914 0.136344 0.780256
C 6.231242 1.342184 1.438684
C 5.027465 2.057425 1.422621
C 3.924807 1.538152 0.734436
C 4.024286 0.335007 0.073323
H 7.258803 -0.414158 0.791285
H 7.082035 1.743293 1.968987
H 3.002677 2.096363 0.716362
H 3.178470 -0.063842 -0.463831
C 4.944290 3.304225 2.070461
C 4.877791 4.389602 2.602195
C 4.884353 5.682525 3.155410
C 6.087873 6.286449 3.475857
C 6.131186 7.598482 3.956665
C 4.981859 8.334413 4.107655
C 3.734892 7.758926 3.805013
C 2.515856 8.464531 3.922463
C 1.338239 7.839445 3.632422
N 1.287804 6.537002 3.258190
C 2.405035 5.852064 3.113405
C 3.671182 6.410313 3.348117
H 7.007445 5.737907 3.339908
H 7.087851 8.037016 4.196412
H 5.021026 9.354309 4.456723
H 2.529589 9.495125 4.239205
H 0.384360 8.360701 3.690197
H 2.317684 4.811603 2.808192
C 0.821175 -4.196496 3.418121
C 0.934787 -5.234905 2.807871
C 1.111612 -6.412458 2.056590
C 1.690297 -7.538786 2.614904
C 1.921437 -8.686382 1.847436
C 1.599789 -8.721964 0.514955
C 0.999139 -7.597327 -0.090269
C 0.683023 -7.554049 -1.461587
N 0.117278 -6.508462 -2.027082
C -0.223786 -5.431373 -1.275826
C 0.066594 -5.360156 0.056516
C 0.722849 -6.436673 0.687133
H 1.975311 -7.527320 3.655974
H 2.372478 -9.546528 2.317663
H 1.799438 -9.600816 -0.077079
H 0.911450 -8.401978 -2.102986
H -0.744210 -4.635060 -1.803414
H -0.196074 -4.491110 0.638104
C 0.679061 -2.974050 4.102709
C 0.610902 -2.944201 5.500091
C 0.448848 -1.745486 6.159035
C 0.357078 -0.549527 5.435857
C 0.446843 -0.578792 4.039482
C 0.602183 -1.777101 3.380231
H 0.676642 -3.866497 6.057874
H 0.386102 -1.722227 7.236773
H 0.389421 0.344362 3.485812
H 0.668307 -1.805042 2.304189
C 0.141124 0.661177 6.120528
C -0.087493 1.690858 6.714574
C -0.421668 2.829357 7.469302
C -0.563280 2.723184 8.842363
C -0.960090 3.819154 9.614192
C -1.240040 5.030266 9.030878
C -1.104129 5.187583 7.640053
C -1.393724 6.400287 6.974419
C -1.226402 6.490523 5.623362
N -0.759336 5.453470 4.885333
C -0.497602 4.299282 5.466307
C -0.667913 4.088800 6.843425
H -0.372207 1.775245 9.321656
H -1.058288 3.699246 10.682285
H -1.566235 5.868021 9.626894
H -1.748840 7.244372 7.543670
H -1.461526 7.402053 5.076844
H -0.128346 3.494069 4.834547
C -5.630366 1.297899 -0.708243
C -5.682133 2.369933 -0.149867
C -5.691099 3.638567 0.460477
C -6.772236 4.491707 0.324699
C -6.751410 5.776171 0.880580
C -5.651504 6.234811 1.558996
C -4.531885 5.392334 1.727974
C -3.356748 5.815910 2.377445
N -2.313500 5.029952 2.541516
C -2.358872 3.742838 2.114623
C -3.439091 3.242327 1.445990
C -4.553963 4.069543 1.201047
H -7.640464 4.163290 -0.226150
H -7.613960 6.412630 0.756422
H -5.631956 7.232781 1.967042
H -3.278983 6.830229 2.761693
H -1.482877 3.139900 2.343312
H -3.455101 2.221832 1.098415
C -5.541196 0.046792 -1.348643
C -4.284466 -0.508232 -1.618899
C -4.187213 -1.738152 -2.229338
C -5.343814 -2.445474 -2.576958
C -6.600606 -1.883196 -2.320015
C -6.698343 -0.649427 -1.715170
H -3.396156 0.038884 -1.346060
H -3.221003 -2.166822 -2.440411
H -7.492892 -2.425806 -2.594302
H -7.667730 -0.218694 -1.512739
C -5.261074 -3.728566 -3.149630
C -5.200901 -4.849659 -3.602331
C -5.216365 -6.178130 -4.063466
C -6.426833 -6.806685 -4.300342
C -6.479538 -8.146932 -4.694267
C -5.331762 -8.886581 -4.839763
C -4.078591 -8.288997 -4.616166
C -2.860900 -8.997425 -4.730142
C -1.677534 -8.353653 -4.514058
N -1.621352 -7.032266 -4.215907
C -2.736172 -6.341498 -4.080435
C -4.006699 -6.914040 -4.246888
H -7.344212 -6.253343 -4.169629
H -7.441446 -8.603214 -4.871626
H -5.377200 -9.926211 -5.123427
H -2.880258 -10.045150 -4.984618
H -0.723422 -8.874554 -4.571503
H -2.643238 -5.285154 -3.837264
C -0.868112 3.749093 -4.486890
C -0.965627 4.794189 -3.885108
C -1.129340 5.980239 -3.145442
C -1.633730 7.127296 -3.733827
C -1.851357 8.287384 -2.981927
C -1.593145 8.315792 -1.635276
C -1.073766 7.168811 -0.998110
C -0.832723 7.116564 0.388158
N -0.347668 6.047992 0.984241
C -0.018235 4.952645 0.253864
C -0.239201 4.890399 -1.091954
C -0.809164 5.994152 -1.758299
H -1.867870 7.123167 -4.787563
H -2.241283 9.164091 -3.475830
H -1.782648 9.205456 -1.056262
H -1.054908 7.976126 1.015679
H 0.429676 4.133183 0.812662
H 0.009654 4.007570 -1.658400
C -0.761952 2.521985 -5.168606
C -0.357601 1.371800 -4.480014
C -0.260013 0.167804 -5.139757
C -0.560363 0.085613 -6.504349
C -0.965770 1.235458 -7.193071
C -1.067001 2.439697 -6.532265
H -0.119729 1.439453 -3.430275
H 0.061196 -0.717645 -4.615254
H -1.196535 1.172004 -8.246046
H -1.378049 3.326590 -7.063789
C -0.428087 -1.134308 -7.194080
C -0.286088 -2.178139 -7.790217
C -0.049587 -3.338444 -8.548886
C 0.007274 -3.256610 -9.929419
C 0.314706 -4.377436 -10.706448
C 0.588328 -5.589410 -10.121954
C 0.532139 -5.722823 -8.723154
C 0.817683 -6.935980 -8.056480
C 0.723922 -7.002617 -6.696926
N 0.331854 -5.941052 -5.949550
C 0.080643 -4.785364 -6.532262
C 0.184636 -4.598229 -7.919346
H -0.177108 -2.308475 -10.410944
H 0.349929 -4.276208 -11.780509
H 0.848045 -6.446357 -10.723432
H 1.110566 -7.799634 -8.631869
H 0.959246 -7.914512 -6.151153
H -0.227098 -3.960003 -5.893873
Pd 0.198274 6.379495 1.944056
Pd -0.136442 -6.895193 -2.111600
C 0.695736 -0.123111 -5.702995
C 0.703552 -1.279833 -6.057495
C 0.762240 -2.637728 -6.422477
C 1.227687 -3.025173 -7.667300
C 1.340964 -4.378454 -8.005666
C 1.016156 -5.361492 -7.106152
C 0.533461 -5.008667 -5.827923
C 0.228375 -5.967214 -4.842618
N -0.222345 -5.640191 -3.650028
C -0.451749 -4.338230 -3.343430
C -0.162152 -3.329944 -4.217204
C 0.374738 -3.635880 -5.484121
H 1.512737 -2.270651 -8.384741
H 1.703158 -4.642600 -8.987275
H 1.125389 -6.402743 -7.364125
H 0.369427 -7.025875 -5.045895
H -0.878089 -4.155942 -2.358868
H -0.331430 -2.298127 -3.954997
C 0.692763 1.216325 -5.269572
C 1.063825 2.245057 -6.143188
C 1.063252 3.553338 -5.712459
C 0.694690 3.862075 -4.397249
C 0.328538 2.832275 -3.522894
C 0.325395 1.525201 -3.954196
H 1.346359 2.007354 -7.157956
H 1.344957 4.348010 -6.387076
H 0.036208 3.074883 -2.513972
H 0.036638 0.730501 -3.284790
C 0.665357 5.204211 -3.974269
C 0.611588 6.359178 -3.615792
C 0.477977 7.718745 -3.282028
C 0.481813 8.675208 -4.282522
C 0.275900 10.026561 -3.989453
C 0.044655 10.443478 -2.701788
C 0.042330 9.508875 -1.650982
C -0.204588 9.867363 -0.306297
C -0.171374 8.913192 0.668433
N 0.123477 7.617597 0.397638
C 0.335483 7.239224 -0.847427
C 0.286557 8.132418 -1.928942
H 0.634293 8.368981 -5.306229
H 0.285725 10.744573 -4.795288
H -0.137154 11.483894 -2.482383
H -0.420070 10.895728 -0.064042
H -0.379683 9.151661 1.709912
H 0.565052 6.189779 -1.018934
C 5.400307 -1.572146 -1.378510
C 5.363136 -2.711882 -1.782662
C 5.269476 -4.019976 -2.294900
C 6.304714 -4.580864 -3.022162
C 6.183019 -5.857642 -3.582817
C 5.027184 -6.582560 -3.445177
C 3.951434 -6.050233 -2.702872
C 2.723872 -6.724539 -2.558941
N 1.721079 -6.232732 -1.862079
C 1.861216 -5.050246 -1.211577
C 2.999549 -4.302656 -1.311452
C 4.075103 -4.768703 -2.094438
H 7.215839 -4.020128 -3.165787
H 7.012168 -6.263388 -4.141519
H 4.930487 -7.556816 -3.897032
H 2.569178 -7.688244 -3.038406
H 1.011625 -4.742321 -0.606130
H 3.091204 -3.356912 -0.801828
C 5.414277 -0.248161 -0.898880
C 6.625899 0.406810 -0.651579
C 6.628527 1.693904 -0.160768
C 5.420050 2.356556 0.088208
C 4.209237 1.707774 -0.179815
C 4.206089 0.419348 -0.664026
H 7.557927 -0.105374 -0.838683
H 7.562803 2.196773 0.039883
H 3.280473 2.224749 -0.000029
H 3.275524 -0.085913 -0.868725
C 5.439006 3.652633 0.637024
C 5.465036 4.749372 1.148839
C 5.578878 5.987397 1.805919
C 6.833548 6.497296 2.092927
C 6.982250 7.691728 2.803991
C 5.887388 8.386120 3.256159
C 4.592504 7.910224 2.983174
C 3.424463 8.565578 3.434730
C 2.197027 8.058589 3.122228
N 2.050561 6.947086 2.359584
C 3.115935 6.295697 1.936715
C 4.423778 6.711561 2.230211
H 7.710233 5.957429 1.769041
H 7.976201 8.059459 3.007827
H 6.006034 9.296368 3.822639
H 3.516372 9.461724 4.027204
H 1.278389 8.525510 3.472754
H 2.950681 5.407234 1.330847
C -0.916989 -0.369868 5.512341
C -0.940792 0.789599 5.857056
C -1.012837 2.151088 6.207943
C -1.551237 2.551934 7.418126
C -1.678350 3.909062 7.736646
C -1.291706 4.882013 6.851045
C -0.728816 4.514905 5.609897
C -0.349994 5.462955 4.640382
N 0.180755 5.123225 3.484561
C 0.422091 3.817515 3.205447
C 0.064195 2.818273 4.064441
C -0.557947 3.138300 5.288234
H -1.886030 1.805521 8.122326
H -2.100677 4.183811 8.690885
H -1.411333 5.926099 7.092213
H -0.497752 6.524264 4.825578
H 0.920224 3.622955 2.258279
H 0.247780 1.783745 3.822667
C -0.879009 -1.710756 5.083585
C -0.837949 -2.002425 3.714729
C -0.783733 -3.309440 3.286318
C -0.761447 -4.355207 4.216233
C -0.817651 -4.063494 5.585015
C -0.878578 -2.755954 6.013980
H -0.851747 -1.193191 3.002084
H -0.754103 -3.536831 2.233098
H -0.807341 -4.870543 6.302272
H -0.916859 -2.531541 7.069646
C -0.648739 -5.693602 3.795494
C -0.508563 -6.843996 3.445572
C -0.277167 -8.193441 3.124528
C -0.195975 -9.133975 4.137054
C 0.099628 -10.471572 3.858027
C 0.337530 -10.889380 2.571824
C 0.259875 -9.971018 1.509717
C 0.511205 -10.330703 0.166151
C 0.404141 -9.393340 -0.819474
N 0.033555 -8.115308 -0.559781
C -0.189382 -7.735769 0.682966
C -0.073763 -8.610611 1.774297
H -0.355334 -8.825574 5.158971
H 0.153053 -11.177105 4.673056
H 0.586086 -11.917925 2.362547
H 0.789467 -11.346221 -0.066428
H 0.612672 -9.631334 -1.861079
H -0.480983 -6.700119 0.844616
C -5.360842 1.133737 0.934529
C -5.334145 2.279133 1.323390
C -5.254587 3.592299 1.823240
C -6.325464 4.175044 2.479021
C -6.223252 5.458626 3.027263
C -5.052340 6.168518 2.951416
C -3.938476 5.612027 2.287213
C -2.694328 6.267357 2.216105
N -1.654476 5.750341 1.596473
C -1.767645 4.559214 0.956084
C -2.921310 3.829899 0.988807
C -4.040502 4.323687 1.689344
H -7.250735 3.627121 2.573265
H -7.080591 5.882463 3.527211
H -4.972045 7.148487 3.394085
H -2.557307 7.236070 2.690211
H -0.880201 4.228274 0.420001
H -2.993288 2.876058 0.491594
C -5.370475 -0.201678 0.489142
C -4.211148 -0.765142 -0.057731
C -4.212598 -2.072800 -0.487219
C -5.374067 -2.847104 -0.384020
C -6.533281 -2.284221 0.163802
C -6.531078 -0.976795 0.596989
H -3.319769 -0.164083 -0.142818
H -3.324946 -2.506677 -0.918520
H -7.429466 -2.881590 0.242419
H -7.425510 -0.542388 1.017888
C -5.393851 -4.173775 -0.854249
C -5.415770 -5.304600 -1.285264
C -5.523580 -6.586875 -1.852694
C -6.774036 -7.141609 -2.063533
C -6.916247 -8.381447 -2.693788
C -5.819935 -9.077618 -3.139870
C -4.528759 -8.558186 -2.938178
C -3.359715 -9.214478 -3.385791
C -2.135286 -8.665449 -3.138593
N -1.991662 -7.510520 -2.442406
C -3.059128 -6.856005 -2.029611
C -4.365276 -7.312509 -2.264915
H -7.652643 -6.601062 -1.746410
H -7.907143 -8.783257 -2.841229
H -5.934940 -10.022944 -3.646580
H -3.448183 -10.145339 -3.922788
H -1.217148 -9.132971 -3.489480
H -2.897148 -5.932292 -1.478344
