308
cid:69, pot: -188.91971283234574
Pd 0.544584 4.625396 -1.420707
Pd -0.465245 -4.099813 1.664517
C 5.457542 -2.651268 1.211348
C 5.130292 -3.771318 1.530936
C 4.847390 -5.126473 1.789017
C 5.891991 -6.017191 1.960189
C 5.656100 -7.389042 2.098303
C 4.382080 -7.895862 2.034112
C 3.287812 -7.026585 1.873014
C 1.955001 -7.485017 1.770195
C 0.935734 -6.587040 1.644934
N 1.151358 -5.248614 1.661954
C 2.383641 -4.782556 1.720132
C 3.507628 -5.620584 1.790218
H 6.906183 -5.648328 1.971322
H 6.495739 -8.053792 2.233142
H 4.206317 -8.957874 2.103681
H 1.757737 -8.544916 1.787651
H -0.097526 -6.906742 1.526452
H 2.509799 -3.702606 1.726984
C 5.833559 -1.373469 0.744219
C 7.187233 -1.050324 0.604823
C 7.546968 0.173400 0.070867
C 6.581246 1.080106 -0.332267
C 5.225045 0.773996 -0.194110
C 4.861319 -0.453869 0.356119
H 7.942490 -1.759670 0.906431
H 8.591887 0.419490 -0.042533
H 6.887681 2.009532 -0.785602
H 3.823128 -0.700006 0.510739
C 4.187933 1.713459 -0.630784
C 4.356366 3.099643 -0.551132
C 3.323832 3.935963 -0.923366
N 2.147743 3.464945 -1.347928
C 1.976892 2.142684 -1.470769
C 2.967606 1.246822 -1.138140
H 5.274284 3.521791 -0.175824
H 3.422297 5.016652 -0.878223
H 1.007106 1.822610 -1.849037
H 2.811482 0.189859 -1.281238
C 0.704285 -0.326772 6.308369
C 0.482768 -1.496009 6.526236
C 0.116443 -2.808380 6.881736
C 0.083573 -3.167098 8.217400
C -0.390715 -4.421120 8.616884
C -0.869387 -5.320389 7.696967
C -0.844892 -5.003628 6.326467
C -1.348596 -5.870919 5.330967
C -1.267874 -5.515416 4.016194
N -0.671649 -4.364711 3.618673
C -0.221105 -3.513335 4.519491
C -0.309553 -3.753448 5.899561
H 0.414432 -2.461338 8.963811
H -0.398700 -4.667383 9.667679
H -1.268964 -6.271785 8.011347
H -1.797443 -6.806784 5.622893
H -1.679066 -6.141766 3.227509
H 0.247087 -2.601537 4.155604
C 0.863218 1.053716 6.060194
C 1.068988 1.935759 7.125966
C 1.141242 3.295328 6.884582
C 1.006214 3.793067 5.599583
C 0.806652 2.924124 4.523757
C 0.747321 1.552474 4.764312
H 1.161509 1.552130 8.130392
H 1.293364 3.976093 7.708301
H 1.022123 4.860164 5.443829
H 0.635172 0.856623 3.948439
C 0.642767 3.434445 3.159306
C 1.300311 4.584204 2.709848
C 1.148253 4.990440 1.399904
N 0.399170 4.308752 0.528493
C -0.269283 3.225813 0.944745
C -0.182874 2.771346 2.241137
H 1.946081 5.141925 3.368169
H 1.640130 5.880924 1.019508
H -0.883083 2.729466 0.194391
H -0.760660 1.916733 2.553637
C -5.377851 3.174466 -0.972010
C -5.050182 4.296140 -1.285199
C -4.767553 5.652834 -1.535630
C -5.812624 6.544406 -1.700018
C -5.577248 7.917195 -1.830135
C -4.303233 8.423747 -1.764854
C -3.208551 7.553804 -1.610687
C -1.875647 8.011811 -1.507357
C -0.855947 7.113310 -1.388854
N -1.071406 5.774941 -1.413079
C -2.303724 5.308982 -1.472205
C -3.427989 6.147214 -1.535867
H -6.826718 6.175386 -1.711730
H -6.417137 8.582511 -1.959663
H -4.127686 9.486180 -1.828358
H -1.678541 9.071807 -1.519185
H 0.177330 7.432634 -1.270181
H -2.429585 4.228993 -1.485211
C -5.754210 1.894227 -0.512012
C -7.107931 1.567239 -0.383219
C -7.468384 0.340844 0.144071
C -6.503160 -0.564870 0.550976
C -5.146914 -0.254893 0.423519
C -4.782447 0.975714 -0.120163
H -7.862928 2.275648 -0.687687
H -8.513412 0.091716 0.249350
H -6.810492 -1.496489 0.999073
H -3.743738 1.224974 -0.266373
C -4.110356 -1.193155 0.863915
C -4.274726 -2.579442 0.778133
C -3.242413 -3.414451 1.153961
N -2.070075 -2.942088 1.587547
C -1.903719 -1.619834 1.716544
C -2.894548 -0.725255 1.381032
H -5.189114 -3.002603 0.395468
H -3.337822 -4.495318 1.104141
H -0.937248 -1.298670 2.102253
H -2.742114 0.331432 1.529427
C -0.599879 0.847315 -6.069484
C -0.382595 2.017581 -6.286369
C -0.020716 3.331491 -6.640700
C 0.015605 3.690109 -7.976333
C 0.485626 4.946123 -8.374343
C 0.956718 5.847700 -7.452827
C 0.928576 5.531079 -6.082368
C 1.424994 6.400619 -5.085256
C 1.341486 6.044914 -3.770749
N 0.749016 4.891632 -3.374976
C 0.305170 4.038171 -4.277242
C 0.397346 4.278595 -5.657069
H -0.309319 2.982609 -8.723863
H 0.496434 5.192190 -9.425189
H 1.353105 6.800824 -7.765875
H 1.870712 7.338544 -5.375721
H 1.747392 6.673194 -2.980886
H -0.160067 3.124403 -3.915042
C -0.753815 -0.533754 -5.821470
C -0.946727 -1.417596 -6.888127
C -1.014435 -2.777272 -6.646194
C -0.887443 -3.273474 -5.359725
C -0.700619 -2.402680 -4.283128
C -0.646051 -1.031001 -4.524317
H -1.032898 -1.035148 -7.893597
H -1.156679 -3.459365 -7.470607
H -0.899470 -4.340377 -5.203186
H -0.543877 -0.333894 -3.708144
C -0.544513 -2.911173 -2.917069
C -1.199767 -4.063646 -2.471283
C -1.054529 -4.468460 -1.160146
N -0.314379 -3.782863 -0.284229
C 0.351530 -2.696868 -0.696480
C 0.271491 -2.243418 -1.993647
H -1.838466 -4.624786 -3.133716
H -1.544841 -5.360940 -0.782360
H 0.957712 -2.196837 0.057717
H 0.846813 -1.386024 -2.302800
Pd -3.525773 -2.666079 -0.785749
Pd 3.702561 3.055784 0.510012
C 1.605370 0.992896 5.869965
C 2.501249 1.805423 5.841925
C 3.458218 2.836179 5.912388
C 3.885935 3.281637 7.150309
C 4.742390 4.381611 7.265680
C 5.156950 5.072632 6.154498
C 4.756797 4.648796 4.874170
C 5.123647 5.331741 3.692603
C 4.726791 4.850956 2.479234
N 4.021573 3.699263 2.358603
C 3.629748 3.052801 3.439185
C 3.932148 3.494125 4.736994
H 3.539878 2.781459 8.041830
H 5.057790 4.698966 8.247972
H 5.787386 5.942849 6.248971
H 5.712639 6.232160 3.763680
H 4.960204 5.371787 1.552892
H 3.062755 2.136214 3.295270
C 0.496300 0.120177 5.900491
C -0.009163 -0.325589 7.126070
C -1.144225 -1.114787 7.151539
C -1.788893 -1.464001 5.976901
C -1.292721 -1.031117 4.744627
C -0.141119 -0.246464 4.716957
H 0.483545 -0.044920 8.044234
H -1.537638 -1.453040 8.098174
H -2.696776 -2.044169 6.026515
H 0.286003 0.068465 3.778474
C -1.970592 -1.375987 3.491458
C -2.639583 -2.591668 3.315825
C -3.211147 -2.886863 2.095076
N -3.135076 -2.050738 1.055673
C -2.534778 -0.864204 1.211491
C -1.959265 -0.490825 2.404874
H -2.689784 -3.312703 4.115346
H -3.741637 -3.819383 1.925672
H -2.530783 -0.215805 0.336458
H -1.514084 0.485442 2.508728
C 5.499395 -2.757367 0.895158
C 6.317322 -1.869688 0.977622
C 7.348179 -0.910667 0.960595
C 8.663759 -1.324277 1.069936
C 9.719715 -0.416554 0.935713
C 9.482111 0.906357 0.657700
C 8.159945 1.374819 0.549226
C 7.846285 2.716739 0.236112
C 6.542132 3.112866 0.174726
N 5.520510 2.266246 0.452578
C 5.771198 0.998225 0.714412
C 7.072710 0.473536 0.742432
H 8.878274 -2.367294 1.245695
H 10.733387 -0.775036 1.030170
H 10.299265 1.596465 0.517828
H 8.644706 3.415299 0.043813
H 6.264537 4.128177 -0.100076
H 4.921138 0.354344 0.928535
C 4.558333 -3.791026 0.698798
C 4.972758 -5.126570 0.722562
C 4.062389 -6.130347 0.447698
C 2.746186 -5.826684 0.143499
C 2.315498 -4.497702 0.122117
C 3.229304 -3.485979 0.412442
H 6.000948 -5.366008 0.946388
H 4.384311 -7.160591 0.459600
H 2.066758 -6.624963 -0.110419
H 2.915053 -2.455030 0.443275
C 0.930590 -4.156418 -0.216262
C -0.144441 -4.985967 0.119150
C -1.432118 -4.590431 -0.179958
N -1.695658 -3.421777 -0.771560
C -0.680986 -2.627409 -1.135324
C 0.630777 -2.963649 -0.888423
H 0.019571 -5.919080 0.632875
H -2.289088 -5.212393 0.061705
H -0.959263 -1.701601 -1.636861
H 1.426216 -2.318708 -1.224798
C -1.431186 -0.598866 -6.144946
C -2.322579 -1.416284 -6.116651
C -3.273775 -2.452313 -6.187453
C -3.696165 -2.902098 -7.425778
C -4.546297 -4.006953 -7.541559
C -4.959795 -4.698322 -6.430273
C -4.565149 -4.270283 -5.149651
C -4.931410 -4.953147 -3.967868
C -4.540016 -4.468456 -2.754220
N -3.840929 -3.313042 -2.633730
C -3.449885 -2.666089 -3.714404
C -3.747086 -3.110964 -5.012282
H -3.350596 -2.401392 -8.317182
H -4.857347 -4.327581 -8.524023
H -5.585228 -5.572120 -6.524819
H -5.515577 -5.856674 -4.038900
H -4.773165 -4.989049 -1.827761
H -2.888243 -1.746278 -3.570438
C -0.326840 0.279608 -6.175491
C 0.171678 0.734308 -7.400580
C 1.302698 1.529480 -7.426344
C 1.950036 1.875890 -6.252288
C 1.460907 1.434087 -5.020502
C 0.313332 0.643559 -4.992532
H -0.322997 0.455853 -8.318376
H 1.690802 1.874598 -8.372656
H 2.854785 2.460765 -6.302440
H -0.108329 0.321366 -4.053988
C 2.141466 1.776059 -3.768019
C 2.804601 2.994319 -3.588671
C 3.378633 3.286670 -2.368310
N 3.310042 2.445275 -1.332518
C 2.715705 1.256196 -1.492448
C 2.138467 0.885484 -2.685737
H 2.848513 3.719502 -4.384812
H 3.904692 4.221219 -2.196091
H 2.717897 0.603625 -0.620598
H 1.698518 -0.092667 -2.792885
C -5.328245 3.149131 -1.145572
C -6.145161 2.260887 -1.232349
C -7.175125 1.300792 -1.219962
C -8.491219 1.713870 -1.325933
C -9.546192 0.804475 -1.196276
C -9.307161 -0.519792 -0.926111
C -7.984592 -0.987629 -0.821204
C -7.669428 -2.330805 -0.515630
C -6.365018 -2.726168 -0.456907
N -5.344166 -1.877219 -0.730558
C -5.596036 -0.607966 -0.985448
C -6.898186 -0.084343 -1.009925
H -8.706739 2.757777 -1.495562
H -10.560282 1.162567 -1.287956
H -10.123581 -1.211456 -0.789703
H -8.467252 -3.031348 -0.326818
H -6.086482 -3.742708 -0.187652
H -4.746980 0.037944 -1.196290
C -4.387855 4.182365 -0.944238
C -4.804283 5.517536 -0.955142
C -3.894075 6.520280 -0.675824
C -2.576053 6.216042 -0.379728
C -2.143676 4.887481 -0.371110
C -3.057135 3.876929 -0.666080
H -5.833804 5.757296 -1.172569
H -4.217502 7.550058 -0.677864
H -1.896713 7.012927 -0.122073
H -2.741719 2.846702 -0.706869
C -0.757006 4.545300 -0.040650
C 0.315953 5.378663 -0.373318
C 1.605016 4.982532 -0.081121
N 1.871835 3.809940 0.501045
C 0.859401 3.011395 0.861751
C -0.453549 3.347674 0.621237
H 0.148957 6.315438 -0.879518
H 2.460606 5.607235 -0.320878
H 1.140377 2.081907 1.355156
H -1.247254 2.699181 0.954674
