308
cid:69, pot: -201.61155893270734
Pd -1.057249 4.730311 -0.656743
Pd 0.836555 -4.321549 0.413297
C 5.941563 -1.186467 -0.808678
C 5.980148 -2.391368 -0.706367
C 6.101151 -3.794233 -0.726701
C 7.336704 -4.365340 -0.973920
C 7.476128 -5.749349 -1.121478
C 6.384486 -6.579110 -1.058786
C 5.109892 -6.044155 -0.797540
C 3.941948 -6.838300 -0.748968
C 2.739827 -6.261224 -0.461142
N 2.627744 -4.941855 -0.169817
C 3.688409 -4.161344 -0.239890
C 4.960935 -4.642323 -0.586137
H 8.204056 -3.730340 -1.070078
H 8.456376 -6.159682 -1.310706
H 6.489606 -7.641989 -1.209911
H 4.013469 -7.896133 -0.945128
H 1.816278 -6.836417 -0.451985
H 3.551353 -3.109208 -0.002236
C 5.874669 0.206984 -1.023587
C 7.034455 0.922372 -1.338873
C 6.948603 2.272027 -1.627113
C 5.725884 2.921631 -1.612181
C 4.559362 2.221788 -1.293565
C 4.646480 0.864223 -0.990039
H 7.987373 0.416522 -1.363630
H 7.843219 2.822112 -1.876802
H 5.680038 3.964614 -1.882982
H 3.768401 0.308742 -0.702378
C 3.253491 2.887790 -1.289191
C 3.101222 4.227628 -0.917888
C 1.840175 4.786407 -0.877379
N 0.742745 4.081901 -1.168264
C 0.866822 2.809208 -1.565141
C 2.092971 2.189391 -1.649457
H 3.955643 4.821097 -0.636104
H 1.686417 5.824580 -0.597776
H -0.061354 2.297614 -1.815700
H 2.162674 1.174391 -2.005744
C 2.186063 -1.252700 5.505448
C 2.310473 -2.455810 5.479008
C 2.367063 -3.859370 5.577547
C 2.752358 -4.442307 6.771485
C 2.704550 -5.829478 6.946363
C 2.241431 -6.650948 5.948983
C 1.849638 -6.103779 4.713543
C 1.336680 -6.888936 3.656503
C 1.002262 -6.299053 2.472555
N 1.189679 -4.974752 2.251809
C 1.633061 -4.203057 3.225054
C 1.948906 -4.697964 4.499958
H 3.079792 -3.814709 7.586102
H 3.015894 -6.249121 7.890738
H 2.170632 -7.716698 6.100026
H 1.210350 -7.950158 3.799247
H 0.570004 -6.867319 1.651797
H 1.765471 -3.146290 3.004367
C 1.945057 0.136896 5.564914
C 2.192104 0.838511 6.749361
C 1.876359 2.182462 6.826927
C 1.312818 2.839497 5.746221
C 1.065991 2.153769 4.554105
C 1.396544 0.802272 4.470423
H 2.619073 0.326334 7.597874
H 2.061032 2.721858 7.743465
H 1.035024 3.876744 5.847012
H 1.254948 0.258690 3.550149
C 0.452680 2.828438 3.406201
C 0.685049 4.178513 3.124027
C 0.121133 4.748891 2.001187
N -0.635750 4.046645 1.153154
C -0.902502 2.762259 1.421574
C -0.392106 2.130099 2.532658
H 1.321673 4.772083 3.759514
H 0.276776 5.795253 1.755206
H -1.546508 2.251865 0.706803
H -0.653784 1.104984 2.738865
C -6.162464 1.593873 0.560341
C -6.199458 2.799294 0.464430
C -6.319189 4.202180 0.492468
C -7.553708 4.772761 0.746441
C -7.691858 6.156096 0.901938
C -6.599888 6.985411 0.840222
C -5.326463 6.451170 0.572136
C -4.158204 7.244851 0.523933
C -2.957224 6.668596 0.229461
N -2.846784 5.350599 -0.068745
C -3.907740 4.570339 0.000455
C -5.178985 5.050297 0.352924
H -8.421073 4.137744 0.841991
H -8.671162 6.565954 1.096406
H -6.703809 8.047556 0.997265
H -4.228502 8.301736 0.725507
H -2.033522 7.243404 0.220395
H -3.771920 3.519337 -0.243128
C -6.097077 0.199283 0.767944
C -7.258615 -0.517868 1.072231
C -7.174453 -1.869068 1.353626
C -5.951504 -2.518545 1.342617
C -4.783211 -1.816934 1.035099
C -4.868666 -0.457729 0.738317
H -8.211775 -0.012322 1.093992
H -8.070458 -2.420612 1.594882
H -5.907276 -3.562925 1.608080
H -3.988761 0.099358 0.459307
C -3.477225 -2.482620 1.034661
C -3.322635 -3.820314 0.656717
C -2.061216 -4.378555 0.619984
N -0.965395 -3.675444 0.920501
C -1.092167 -2.405127 1.324101
C -2.318833 -1.786042 1.405388
H -4.175319 -4.412430 0.367010
H -1.905704 -5.415197 0.335298
H -0.165522 -1.894765 1.582640
H -2.390624 -0.773290 1.767361
C -2.383234 1.664738 -5.759571
C -2.511621 2.867437 -5.731143
C -2.572463 4.270971 -5.827353
C -2.954486 4.854793 -7.021946
C -2.910794 6.242362 -7.194132
C -2.454948 7.063561 -6.193234
C -2.066623 6.515490 -4.957103
C -1.560644 7.300401 -3.896601
C -1.228859 6.709580 -2.712423
N -1.412570 5.384232 -2.494670
C -1.849523 4.612741 -3.471067
C -2.161882 5.108961 -4.746378
H -3.276209 4.227447 -7.839175
H -3.219453 6.662636 -8.139142
H -2.387226 8.129793 -6.341989
H -1.437382 8.362414 -4.036869
H -0.801734 7.277947 -1.889075
H -1.979108 3.555258 -3.253019
C -2.137435 0.276050 -5.820282
C -2.372199 -0.423433 -7.008456
C -2.052023 -1.766284 -7.086395
C -1.496031 -2.424426 -6.002389
C -1.261416 -1.740725 -4.806665
C -1.596607 -0.390449 -4.722668
H -2.793182 0.089627 -7.859458
H -2.227274 -2.303990 -8.005797
H -1.214443 -3.460519 -6.103128
H -1.464603 0.151417 -3.799905
C -0.655448 -2.416175 -3.655309
C -0.885929 -3.767506 -3.377712
C -0.328462 -4.338702 -2.252096
N 0.420217 -3.636118 -1.397139
C 0.684842 -2.350285 -1.660537
C 0.180479 -1.717128 -2.773818
H -1.516115 -4.361554 -4.019276
H -0.482805 -5.386038 -2.009372
H 1.321769 -1.839275 -0.939779
H 0.440010 -0.690688 -2.975708
Pd -2.857206 2.608188 -1.875698
Pd 3.706705 -2.837545 1.856136
C -1.835372 -5.292090 2.658254
C -0.861255 -5.825033 3.138516
C 0.192809 -6.447386 3.834819
C -0.069606 -7.566946 4.603940
C 0.922905 -8.141995 5.404570
C 2.178271 -7.591550 5.476422
C 2.494145 -6.459817 4.702856
C 3.756920 -5.827316 4.752185
C 4.008747 -4.750426 3.953560
N 3.095152 -4.284507 3.066685
C 1.893388 -4.825194 3.016523
C 1.510781 -5.897841 3.837231
H -1.060983 -7.993414 4.597698
H 0.682516 -9.017054 5.989013
H 2.930615 -8.015232 6.123047
H 4.509883 -6.202147 5.426920
H 4.956556 -4.217555 3.993092
H 1.191383 -4.416960 2.293433
C -2.978258 -4.615642 2.179882
C -4.250715 -5.155784 2.392815
C -5.369654 -4.448714 1.992966
C -5.243991 -3.209126 1.388852
C -3.979453 -2.659056 1.164267
C -2.850400 -3.376814 1.555031
H -4.352791 -6.115961 2.874686
H -6.351711 -4.863166 2.163553
H -6.133377 -2.658651 1.125644
H -1.861730 -2.994397 1.358428
C -3.826309 -1.340764 0.541748
C -4.712084 -0.868909 -0.432435
C -4.486121 0.356426 -1.025351
N -3.430184 1.112380 -0.711060
C -2.590804 0.700108 0.247049
C -2.762159 -0.500899 0.897440
H -5.554262 -1.464355 -0.745205
H -5.156060 0.754824 -1.781772
H -1.766483 1.373437 0.477791
H -2.088846 -0.788537 1.688631
C 2.011989 -4.983191 -3.593067
C 2.902548 -5.529909 -2.983328
C 4.025196 -6.151267 -2.403453
C 4.634755 -7.204781 -3.060968
C 5.821145 -7.767690 -2.578648
C 6.433892 -7.268585 -1.456474
C 5.844418 -6.205325 -0.748418
C 6.437030 -5.625787 0.396187
C 5.798143 -4.615581 1.054068
N 4.575552 -4.170730 0.673203
C 4.006082 -4.662194 -0.410054
C 4.604903 -5.660587 -1.194044
H 4.195646 -7.587364 -3.969597
H 6.266586 -8.590657 -3.116486
H 7.368059 -7.680407 -1.108211
H 7.394321 -5.986930 0.736203
H 6.242912 -4.122102 1.915514
H 3.026608 -4.273904 -0.680045
C 1.042868 -4.284799 -4.345172
C 0.693552 -4.733842 -5.622798
C -0.194562 -3.999518 -6.386939
C -0.737140 -2.821283 -5.902678
C -0.402915 -2.363023 -4.625793
C 0.481755 -3.109731 -3.849454
H 1.124710 -5.644872 -6.008455
H -0.458688 -4.343022 -7.375585
H -1.392913 -2.244364 -6.535508
H 0.725497 -2.801353 -2.845436
C -0.952899 -1.108295 -4.104143
C -2.237450 -0.663804 -4.433842
C -2.722619 0.500119 -3.873556
N -2.008132 1.219999 -3.003797
C -0.762108 0.834490 -2.700966
C -0.202739 -0.304073 -3.235309
H -2.863302 -1.234412 -5.100347
H -3.713252 0.876414 -4.111638
H -0.221906 1.477036 -2.007125
H 0.815000 -0.568346 -2.998269
C 2.684673 5.064504 -2.673032
C 1.711124 5.593577 -3.158662
C 0.658656 6.211519 -3.861229
C 0.922844 7.327127 -4.635690
C -0.067489 7.897465 -5.442407
C -1.322379 7.346158 -5.514795
C -1.640134 6.218568 -4.735996
C -2.902616 5.585507 -4.785319
C -3.156421 4.512705 -3.981741
N -2.245073 4.051625 -3.090072
C -1.043543 4.592981 -3.039312
C -0.659096 5.661615 -3.864510
H 1.914070 7.753917 -4.628812
H 0.174370 8.769216 -6.030916
H -2.073024 7.765967 -6.165888
H -3.653852 5.956556 -5.464011
H -4.104018 3.979590 -4.021084
H -0.343615 4.188848 -2.311990
C 3.827084 4.392020 -2.188376
C 5.098750 4.937678 -2.391447
C 6.217928 4.234303 -1.985401
C 6.093095 2.992934 -1.384674
C 4.829418 2.437277 -1.169961
C 3.700158 3.151358 -1.566829
H 5.200319 5.899226 -2.870718
H 7.199427 4.653011 -2.148440
H 6.982887 2.445546 -1.116717
H 2.711733 2.764268 -1.378016
C 4.677135 1.117253 -0.550957
C 5.558001 0.647239 0.428448
C 5.332600 -0.579874 1.018069
N 4.281350 -1.339172 0.695804
C 3.447203 -0.928536 -0.267679
C 3.618581 0.273908 -0.915236
H 6.395902 1.245230 0.747806
H 5.998857 -0.976872 1.778510
H 2.626962 -1.604476 -0.504928
H 2.949829 0.559926 -1.710710
C -1.180504 4.740424 3.586653
C -2.068061 5.289368 2.974473
C -3.187815 5.913210 2.391608
C -3.799983 6.964688 3.050099
C -4.983737 7.529905 2.564266
C -5.591438 7.035109 1.437463
C -4.999267 5.974110 0.728464
C -5.586922 5.398623 -0.420581
C -4.945915 4.390167 -1.078890
N -3.725301 3.943180 -0.694129
C -3.160230 4.430775 0.393232
C -3.762087 5.427047 1.177825
H -3.364822 7.343810 3.962166
H -5.431303 8.351195 3.102951
H -6.523745 7.448660 1.086284
H -6.542622 5.761564 -0.763865
H -5.387284 3.899754 -1.943831
H -2.182468 4.041124 0.666555
C -0.215014 4.039004 4.340497
C 0.125072 4.480478 5.623327
C 1.009928 3.743062 6.388336
C 1.558319 2.569115 5.899937
C 1.233081 2.118585 4.618008
C 0.351969 2.868399 3.840802
H -0.310666 5.388034 6.012107
H 1.266915 4.080721 7.380805
H 2.211149 1.989513 6.533016
H 0.115316 2.566200 2.833237
C 1.788584 0.868024 4.092023
C 3.071856 0.423490 4.426694
C 3.561826 -0.736669 3.862830
N 2.853385 -1.452717 2.985067
C 1.608772 -1.067100 2.676775
C 1.044796 0.067863 3.213951
H 3.692881 0.991357 5.100139
H 4.551652 -1.113027 4.104432
H 1.073568 -1.706283 1.975816
H 0.028350 0.332582 2.972180
