336
cid:69, pot: -285.36289637741004
C -0.684446 0.592025 3.814112
C -1.724028 -0.374706 4.137732
C -1.026978 1.889102 3.451243
C -0.039252 2.834939 3.176591
H -2.059741 2.195966 3.387998
C 1.298286 2.466753 3.258898
C 1.657369 1.168590 3.621853
H 2.085496 3.177424 3.058659
C 0.662260 0.237012 3.892575
C 3.059633 0.796891 3.746762
H 0.908179 -0.773249 4.182059
C -0.400709 4.203799 2.836261
H 3.259321 -0.276916 3.886743
H -2.754768 -0.064724 3.905602
H 0.424415 4.843897 2.487263
C -1.550704 -3.342134 0.604730
C -1.439354 -3.599259 2.033534
C -0.557680 -3.783216 -0.261802
C -0.671049 -3.578081 -1.636854
H 0.312431 -4.304595 0.106810
C -1.785880 -2.916069 -2.137149
C -2.790672 -2.467592 -1.279714
H -1.905613 -2.747717 -3.196407
C -2.664076 -2.679334 0.087993
C -3.976305 -1.810267 -1.811076
H -3.427410 -2.349867 0.776208
C 0.351410 -4.077511 -2.545232
H -4.644038 -1.351497 -1.065390
H -0.466941 -3.986824 2.375073
H 0.267557 -3.742851 -3.590839
C 4.541844 0.761834 -0.625881
C 5.059477 1.497332 0.519125
C 4.192706 1.438736 -1.788389
C 3.732648 0.742319 -2.905934
H 4.282928 2.512008 -1.856899
C 3.615163 -0.641115 -2.845676
C 3.961708 -1.334238 -1.685767
H 3.268420 -1.208834 -3.695484
C 4.418769 -0.626897 -0.580132
C 3.875682 -2.787097 -1.639498
H 4.700674 -1.135188 0.329322
C 3.406620 1.450994 -4.135455
H 4.017407 -3.243619 -0.647680
H 4.980957 2.593939 0.458078
H 2.907551 0.853770 -4.914307
C -2.214450 3.802383 -1.390293
C -2.794333 4.383089 -0.187520
C -2.893476 2.804378 -2.078938
C -2.367636 2.267153 -3.253939
H -3.845163 2.434525 -1.729406
C -1.147329 2.732135 -3.729097
C -0.454138 3.733326 -3.048569
H -0.717434 2.340975 -4.638497
C -0.990418 4.259218 -1.879244
C 0.804458 4.246448 -3.570984
H -0.481353 5.039012 -1.333805
C -3.101364 1.250678 -3.994628
H 1.361926 4.919404 -2.901026
H -3.678839 3.865141 0.214801
H -2.552895 0.770158 -4.819576
C -2.507572 -2.397380 4.998607
C -2.264518 -3.702303 4.213614
N -1.457930 -1.482780 4.676531
N -2.406782 -3.417035 2.820661
C -3.307802 -4.749971 4.611221
H -1.250592 -4.067333 4.458898
C -3.267793 -5.020325 6.110284
H -3.114866 -5.668107 4.052188
H -4.293155 -4.381682 4.320458
C -3.505156 -3.730313 6.888001
H -2.292351 -5.432016 6.379681
H -4.027895 -5.759972 6.369661
C -2.469413 -2.681237 6.502710
H -3.449056 -3.923641 7.961151
H -4.505839 -3.352130 6.666416
H -1.467437 -3.027333 6.761954
H -2.651752 -1.748763 7.041145
H -3.500228 -2.004242 4.713424
C 5.344312 1.255899 3.871540
C 6.106491 1.671737 2.596990
N 3.980711 1.657081 3.724909
N 5.590040 0.912851 1.501866
C 7.596224 1.356191 2.756281
H 5.964274 2.757794 2.450412
C 8.178118 2.063635 3.973881
H 8.119793 1.664585 1.848778
H 7.710003 0.275488 2.857589
C 7.423661 1.655695 5.234768
H 8.099933 3.144839 3.838212
H 9.236314 1.813026 4.072368
C 5.939699 1.968891 5.088685
H 7.826380 2.185119 6.100588
H 7.554334 0.584593 5.405023
H 5.791214 3.042975 4.964559
H 5.393585 1.656071 5.981245
H 5.442665 0.161445 3.989432
C -1.892169 5.987896 2.638725
C -2.939109 5.981071 1.506517
N -1.579423 4.631852 2.963245
N -2.328067 5.429339 0.338577
C -3.382988 7.414055 1.200495
H -3.804635 5.381412 1.842239
C -3.953181 8.087226 2.442857
H -4.129137 7.388307 0.403484
H -2.519191 7.970548 0.832696
C -2.919956 8.092332 3.564388
H -4.843879 7.547298 2.772617
H -4.250219 9.109865 2.201788
C -2.473765 6.670082 3.879940
H -3.341731 8.551419 4.460748
H -2.055190 8.685390 3.258029
H -3.320503 6.078480 4.232471
H -1.716364 6.673093 4.666865
H -1.004923 6.542857 2.283461
C 2.230493 -5.352127 -3.084389
C 3.621889 -4.900680 -2.596173
N 1.255779 -4.866249 -2.159458
N 3.680341 -3.475163 -2.677384
C 4.706752 -5.491065 -3.501002
H 3.756608 -5.261331 -1.560305
C 4.625667 -7.012329 -3.531408
H 5.683792 -5.167883 -3.135288
H 4.574512 -5.085988 -4.505782
C 3.249295 -7.460354 -4.011315
H 4.806051 -7.406263 -2.528583
H 5.400118 -7.407379 -4.192034
C 2.161568 -6.881468 -3.114962
H 3.186706 -8.550366 -4.006058
H 3.094394 -7.119626 -5.037718
H 2.276975 -7.251371 -2.094729
H 1.173623 -7.181722 -3.470650
H 2.074192 -4.946761 -4.100515
C -5.415839 -1.158039 -3.528463
C -4.993354 -0.024537 -4.485073
N -4.231978 -1.795817 -3.045280
N -4.298391 0.964230 -3.722946
C -6.234881 0.617656 -5.110185
H -4.355641 -0.460969 -5.275119
C -7.070493 -0.417042 -5.853694
H -5.915835 1.410926 -5.789671
H -6.823180 1.075768 -4.313217
C -7.486658 -1.539953 -4.909601
H -6.485603 -0.833445 -6.677050
H -7.954529 0.062732 -6.278563
C -6.258030 -2.189181 -4.284670
H -8.062503 -2.292241 -5.452372
H -8.123926 -1.133258 -4.120943
H -5.635096 -2.640908 -5.058649
H -6.554431 -2.978192 -3.590196
H -6.009392 -0.713363 -2.709174
C 3.388180 3.321273 -5.531208
C 2.441796 4.497160 -5.215066
N 3.705679 2.663931 -4.302935
N 1.210834 3.958391 -4.728821
C 2.160858 5.295547 -6.490981
H 2.934494 5.143331 -4.466012
C 3.454390 5.810298 -7.110142
H 1.497067 6.127476 -6.246018
H 1.638017 4.645899 -7.194984
C 4.392443 4.648936 -7.420822
H 3.943609 6.495331 -6.413675
H 3.228326 6.364436 -8.023365
C 4.682190 3.849376 -6.156482
H 5.328361 5.024272 -7.839472
H 3.928703 3.997234 -8.164951
H 5.188360 4.476942 -5.420887
H 5.335022 3.003107 -6.380943
H 2.874048 2.647005 -6.239948
C -0.638365 0.548076 3.976321
C -1.694436 -0.395807 4.313713
C -0.959937 1.831387 3.550756
C 0.042911 2.756803 3.261780
H -1.987947 2.143509 3.448456
C 1.374544 2.381795 3.393408
C 1.712671 1.097216 3.819493
H 2.172941 3.077032 3.183549
C 0.702685 0.185902 4.103727
C 3.107955 0.719879 3.995425
H 0.932156 -0.813254 4.441514
C -0.297519 4.112995 2.855273
H 3.294332 -0.348618 4.185383
H -2.716163 -0.087707 4.042696
H 0.541841 4.731216 2.500851
C -1.459662 -3.510899 0.913841
C -1.386453 -3.708397 2.354512
C -0.449320 -3.996044 0.092047
C -0.526422 -3.848117 -1.292877
H 0.406516 -4.508355 0.504092
C -1.622314 -3.198929 -1.848608
C -2.644116 -2.706692 -1.036476
H -1.713970 -3.074451 -2.916697
C -2.553729 -2.861543 0.341645
C -3.810105 -2.062852 -1.624922
H -3.331013 -2.497281 0.995810
C 0.513865 -4.393564 -2.153279
H -4.492104 -1.567687 -0.916261
H -0.426458 -4.088972 2.736537
H 0.459255 -4.102668 -3.213801
C 4.698728 0.488614 -0.332834
C 5.194199 1.267564 0.793058
C 4.384898 1.118719 -1.531262
C 3.946654 0.379495 -2.629921
H 4.486556 2.187361 -1.642371
C 3.815158 -0.999152 -2.514614
C 4.126292 -1.645548 -1.318273
H 3.484654 -1.599421 -3.348420
C 4.561933 -0.895869 -0.232009
C 4.025949 -3.094388 -1.213287
H 4.816391 -1.367639 0.704792
C 3.657913 1.038320 -3.895938
H 4.138670 -3.509817 -0.199966
H 5.127137 2.361287 0.684087
H 3.173076 0.412826 -4.661481
C -2.008526 3.548297 -1.395324
C -2.613019 4.183804 -0.233069
C -2.679100 2.527556 -2.058499
C -2.128953 1.937126 -3.196239
H -3.642573 2.180436 -1.718057
C -0.892959 2.371828 -3.659419
C -0.207954 3.395253 -3.004029
H -0.444023 1.939287 -4.540329
C -0.768534 3.974248 -1.871820
C 1.067886 3.875852 -3.515427
H -0.266235 4.772268 -1.346815
C -2.853087 0.896197 -3.912003
H 1.614546 4.571888 -2.860325
H -3.511953 3.690325 0.168002
H -2.288509 0.376913 -4.701867
C -2.517579 -2.374042 5.238518
C -2.266773 -3.712862 4.515380
N -1.451929 -1.482322 4.905112
N -2.371566 -3.485426 3.108512
C -3.329157 -4.734402 4.929982
H -1.262655 -4.075348 4.801335
C -3.329119 -4.941629 6.439561
H -3.130637 -5.676798 4.415009
H -4.303546 -4.370832 4.599101
C -3.574153 -3.618132 7.156190
H -2.364472 -5.349443 6.750625
H -4.102125 -5.663606 6.710381
C -2.519629 -2.594546 6.753662
H -3.546651 -3.766524 8.237581
H -4.565510 -3.241610 6.893671
H -1.527632 -2.937399 7.052586
H -2.706904 -1.638787 7.247750
H -3.499165 -1.985384 4.911995
C 5.392853 1.165476 4.158835
C 6.190405 1.521108 2.887693
N 4.037045 1.571001 3.960906
N 5.694689 0.720819 1.812626
C 7.672795 1.200581 3.097817
H 6.061769 2.601078 2.692092
C 8.230400 1.954115 4.299034
H 8.221638 1.466308 2.191747
H 7.774157 0.124306 3.247194
C 7.440999 1.605687 5.556350
H 8.165460 3.029197 4.116214
H 9.283518 1.699359 4.434774
C 5.964051 1.924331 5.359662
H 7.826693 2.167951 6.409154
H 7.557667 0.541701 5.774693
H 5.828458 2.993389 5.186866
H 5.392934 1.653856 6.250396
H 5.478282 0.076235 4.324953
C -1.767354 5.899097 2.545295
C -2.785631 5.852884 1.388221
N -1.475114 4.555455 2.934264
N -2.150594 5.247526 0.260304
C -3.208719 7.275229 1.011205
H -3.664691 5.274875 1.726736
C -3.803666 8.004676 2.209336
H -3.934894 7.221867 0.197306
H -2.330984 7.808767 0.642349
C -2.798842 8.048844 3.355549
H -4.707192 7.486284 2.538771
H -4.085309 9.018604 1.918110
C -2.373586 6.637610 3.741681
H -3.238699 8.548619 4.220867
H -1.921343 8.621506 3.046583
H -3.234216 6.068198 4.097074
H -1.636083 6.667679 4.546762
H -0.866461 6.431392 2.189708
C 2.394237 -5.704810 -2.590602
C 3.777031 -5.244369 -2.086642
N 1.401153 -5.172611 -1.711889
N 3.850415 -3.824054 -2.226068
C 4.878789 -5.881012 -2.938015
H 3.882496 -5.562031 -1.033417
C 4.784676 -7.401486 -2.906712
H 5.849248 -5.550519 -2.561563
H 4.775398 -5.517597 -3.961926
C 3.416753 -7.858345 -3.402173
H 4.936352 -7.754234 -1.883946
H 5.571814 -7.830249 -3.530302
C 2.312235 -7.233467 -2.558703
H 3.344176 -8.946614 -3.352717
H 3.290675 -7.559960 -4.445536
H 2.398759 -7.561006 -1.521269
H 1.330825 -7.540569 -2.926503
H 2.267078 -5.341391 -3.626474
C -5.200257 -1.472082 -3.404073
C -4.743702 -0.383373 -4.396396
N -4.034699 -2.098380 -2.864762
N -4.059096 0.631074 -3.659009
C -5.963318 0.241780 -5.079236
H -4.090424 -0.857783 -5.150992
C -6.789441 -0.816562 -5.799620
H -5.620210 1.003152 -5.783061
H -6.567205 0.737826 -4.317298
C -7.239265 -1.895289 -4.820124
H -6.187951 -1.271962 -6.589716
H -7.658199 -0.348050 -6.266561
C -6.032597 -2.527397 -4.137537
H -7.808109 -2.665235 -5.345307
H -7.892328 -1.450666 -4.065674
H -5.394574 -3.016409 -4.875839
H -6.353369 -3.284111 -3.418287
H -5.810063 -0.988539 -2.619535
C 3.691357 2.848165 -5.368946
C 2.748086 4.043831 -5.126500
N 3.972063 2.240671 -4.106487
N 1.500497 3.535935 -4.649499
C 2.506361 4.790013 -6.441523
H 3.227714 4.717059 -4.392989
C 3.819634 5.267745 -7.048714
H 1.844262 5.636745 -6.248569
H 1.995461 4.115417 -7.130652
C 4.754602 4.086855 -7.286446
H 4.297445 5.977635 -6.369413
H 3.621476 5.784761 -7.989826
C 5.005351 3.339036 -5.982783
H 5.704041 4.436749 -7.696579
H 4.303714 3.408123 -8.014127
H 5.498631 3.993001 -5.261490
H 5.655878 2.478892 -6.154896
H 3.189029 2.148757 -6.061554
